Initialize SIGNATURE TABLE
ST_SET: 1
ST_WAY: 256
ST_TAG_BIT: 16
ST_TAG_MASK: ffff

Initialize PATTERN TABLE
PT_SET: 512
PT_WAY: 4
SIG_DELTA_BIT: 7
C_SIG_BIT: 4
C_DELTA_BIT: 4

Initialize PREFETCH FILTER
FILTER_SET: 1024

*** ChampSim Multicore Out-of-Order Simulator ***

Warmup Instructions: 50000000
Simulation Instructions: 50000000
Number of CPUs: 1
LLC sets: 2048
LLC ways: 16
Off-chip DRAM Size: 4096 MB Channels: 1 Width: 64-bit Data Rate: 3200 MT/s

CPU 0 runs /home/tapatil/CSE240C/SA1/ChampSim-master/ipc1_public/client_007.champsimtrace.xz
CPU 0 EPI prefetcher
CPU 0 L1D next line prefetcher
Heartbeat CPU 0 instructions: 10000001 cycles: 3641660 heartbeat IPC: 2.746 cumulative IPC: 2.746 (Simulation time: 0 hr 0 min 37 sec) 
Heartbeat CPU 0 instructions: 20000003 cycles: 7032798 heartbeat IPC: 2.94886 cumulative IPC: 2.84382 (Simulation time: 0 hr 1 min 10 sec) 
Heartbeat CPU 0 instructions: 30000000 cycles: 10903686 heartbeat IPC: 2.58339 cumulative IPC: 2.75136 (Simulation time: 0 hr 1 min 50 sec) 
Heartbeat CPU 0 instructions: 40000003 cycles: 15063679 heartbeat IPC: 2.40385 cumulative IPC: 2.65539 (Simulation time: 0 hr 2 min 29 sec) 
Heartbeat CPU 0 instructions: 50000002 cycles: 18467953 heartbeat IPC: 2.93748 cumulative IPC: 2.70739 (Simulation time: 0 hr 3 min 4 sec) 

Warmup complete CPU 0 instructions: 50000002 cycles: 18467953 (Simulation time: 0 hr 3 min 4 sec) 

Heartbeat CPU 0 instructions: 60000003 cycles: 25345419 heartbeat IPC: 1.45402 cumulative IPC: 1.45402 (Simulation time: 0 hr 3 min 43 sec) 
Heartbeat CPU 0 instructions: 70000003 cycles: 34186018 heartbeat IPC: 1.13115 cumulative IPC: 1.27242 (Simulation time: 0 hr 4 min 27 sec) 
Heartbeat CPU 0 instructions: 80000002 cycles: 39489732 heartbeat IPC: 1.88547 cumulative IPC: 1.42709 (Simulation time: 0 hr 4 min 55 sec) 
Heartbeat CPU 0 instructions: 90000002 cycles: 47082499 heartbeat IPC: 1.31704 cumulative IPC: 1.39789 (Simulation time: 0 hr 5 min 34 sec) 
Heartbeat CPU 0 instructions: 100000002 cycles: 56017000 heartbeat IPC: 1.11926 cumulative IPC: 1.33159 (Simulation time: 0 hr 6 min 7 sec) 
Finished CPU 0 instructions: 50000000 cycles: 37549047 cumulative IPC: 1.33159 (Simulation time: 0 hr 6 min 7 sec) 

ChampSim completed all CPUs

Region of Interest Statistics

CPU 0 cumulative IPC: 1.33159 instructions: 50000000 cycles: 37549047
L1D TOTAL     ACCESS:   21190925  HIT:   20021840  MISS:    1169085
L1D LOAD      ACCESS:    8365964  HIT:    7826529  MISS:     539435
L1D RFO       ACCESS:    4868873  HIT:    4777827  MISS:      91046
L1D PREFETCH  ACCESS:    7956088  HIT:    7417484  MISS:     538604
L1D WRITEBACK ACCESS:          0  HIT:          0  MISS:          0
L1D PREFETCH  REQUESTED:    8417757  ISSUED:    8173794  USEFUL:     158120  USELESS:     380499
L1D AVERAGE MISS LATENCY: 34.4711 cycles
L1I TOTAL     ACCESS:   27921028  HIT:   26893455  MISS:    1027573
L1I LOAD      ACCESS:    9123449  HIT:    9112661  MISS:      10788
L1I RFO       ACCESS:          0  HIT:          0  MISS:          0
L1I PREFETCH  ACCESS:   18797579  HIT:   17780794  MISS:    1016785
L1I WRITEBACK ACCESS:          0  HIT:          0  MISS:          0
L1I PREFETCH  REQUESTED:   21963352  ISSUED:   21963352  USEFUL:     842584  USELESS:     174202
L1I AVERAGE MISS LATENCY: 16.9464 cycles
L2C TOTAL     ACCESS:    3157326  HIT:    2950654  MISS:     206672
L2C LOAD      ACCESS:     519727  HIT:     450596  MISS:      69131
L2C RFO       ACCESS:      89501  HIT:      47923  MISS:      41578
L2C PREFETCH  ACCESS:    2220422  HIT:    2124586  MISS:      95836
L2C WRITEBACK ACCESS:     327676  HIT:     327549  MISS:        127
L2C PREFETCH  REQUESTED:    2613279  ISSUED:    2605404  USEFUL:       8981  USELESS:      87007
L2C AVERAGE MISS LATENCY: 125.719 cycles
LLC TOTAL     ACCESS:     993473  HIT:     825404  MISS:     168069
LLC LOAD      ACCESS:      69044  HIT:      34340  MISS:      34704
LLC RFO       ACCESS:      41578  HIT:       7224  MISS:      34354
LLC PREFETCH  ACCESS:     808381  HIT:     709681  MISS:      98700
LLC WRITEBACK ACCESS:      74470  HIT:      74159  MISS:        311
LLC PREFETCH  REQUESTED:          0  ISSUED:          0  USEFUL:      18707  USELESS:      80858
LLC AVERAGE MISS LATENCY: 183.992 cycles
Major fault: 0 Minor fault: 4405
CPU 0 L1I EPI prefetcher final stats
CPU 0 L1D next line prefetcher final stats

DRAM Statistics
 CHANNEL 0
 RQ ROW_BUFFER_HIT:      35732  ROW_BUFFER_MISS:     132019
 DBUS_CONGESTED:      94422
 WQ ROW_BUFFER_HIT:      12907  ROW_BUFFER_MISS:      45605  FULL:          0

 AVG_CONGESTED_CYCLE: 5

CPU 0 Branch Prediction Accuracy: 98.8607% MPKI: 1.8623 Average ROB Occupancy at Mispredict: 113.924

Branch types
NOT_BRANCH: 41826773 83.6535%
BRANCH_DIRECT_JUMP: 735330 1.47066%
BRANCH_INDIRECT: 269194 0.538388%
BRANCH_CONDITIONAL: 5957947 11.9159%
BRANCH_DIRECT_CALL: 368758 0.737516%
BRANCH_INDIRECT_CALL: 226975 0.45395%
BRANCH_RETURN: 614696 1.22939%
BRANCH_OTHER: 0 0%

