Initialize SIGNATURE TABLE
ST_SET: 1
ST_WAY: 256
ST_TAG_BIT: 16
ST_TAG_MASK: ffff

Initialize PATTERN TABLE
PT_SET: 512
PT_WAY: 4
SIG_DELTA_BIT: 7
C_SIG_BIT: 4
C_DELTA_BIT: 4

Initialize PREFETCH FILTER
FILTER_SET: 1024

*** ChampSim Multicore Out-of-Order Simulator ***

Warmup Instructions: 50000000
Simulation Instructions: 50000000
Number of CPUs: 1
LLC sets: 2048
LLC ways: 16
Off-chip DRAM Size: 4096 MB Channels: 1 Width: 64-bit Data Rate: 3200 MT/s

CPU 0 runs /home/tapatil/CSE240C/SA1/ChampSim-master/ipc1_public/client_008.champsimtrace.xz
CPU 0 EPI prefetcher
CPU 0 L1D next line prefetcher
Heartbeat CPU 0 instructions: 10000001 cycles: 3751335 heartbeat IPC: 2.66572 cumulative IPC: 2.66572 (Simulation time: 0 hr 0 min 41 sec) 
Heartbeat CPU 0 instructions: 20000001 cycles: 7524178 heartbeat IPC: 2.65052 cumulative IPC: 2.6581 (Simulation time: 0 hr 1 min 22 sec) 
Heartbeat CPU 0 instructions: 30000000 cycles: 11248427 heartbeat IPC: 2.6851 cumulative IPC: 2.66704 (Simulation time: 0 hr 2 min 3 sec) 
Heartbeat CPU 0 instructions: 40000002 cycles: 15039542 heartbeat IPC: 2.63775 cumulative IPC: 2.65966 (Simulation time: 0 hr 2 min 44 sec) 
Heartbeat CPU 0 instructions: 50000003 cycles: 18827891 heartbeat IPC: 2.63967 cumulative IPC: 2.65563 (Simulation time: 0 hr 3 min 26 sec) 

Warmup complete CPU 0 instructions: 50000003 cycles: 18827891 (Simulation time: 0 hr 3 min 26 sec) 

Heartbeat CPU 0 instructions: 60000000 cycles: 26967012 heartbeat IPC: 1.22863 cumulative IPC: 1.22863 (Simulation time: 0 hr 4 min 9 sec) 
Heartbeat CPU 0 instructions: 70000000 cycles: 34889502 heartbeat IPC: 1.26223 cumulative IPC: 1.2452 (Simulation time: 0 hr 4 min 53 sec) 
Heartbeat CPU 0 instructions: 80000001 cycles: 43944834 heartbeat IPC: 1.10432 cumulative IPC: 1.19441 (Simulation time: 0 hr 5 min 30 sec) 
Heartbeat CPU 0 instructions: 90000001 cycles: 51315030 heartbeat IPC: 1.35682 cumulative IPC: 1.23126 (Simulation time: 0 hr 6 min 6 sec) 
Heartbeat CPU 0 instructions: 100000001 cycles: 59369959 heartbeat IPC: 1.24148 cumulative IPC: 1.23329 (Simulation time: 0 hr 6 min 41 sec) 
Finished CPU 0 instructions: 50000002 cycles: 40542069 cumulative IPC: 1.23329 (Simulation time: 0 hr 6 min 41 sec) 

ChampSim completed all CPUs

Region of Interest Statistics

CPU 0 cumulative IPC: 1.23329 instructions: 50000002 cycles: 40542069
L1D TOTAL     ACCESS:   20479633  HIT:   18851143  MISS:    1628490
L1D LOAD      ACCESS:    8060738  HIT:    7261206  MISS:     799532
L1D RFO       ACCESS:    4815014  HIT:    4705490  MISS:     109524
L1D PREFETCH  ACCESS:    7603881  HIT:    6884447  MISS:     719434
L1D WRITEBACK ACCESS:          0  HIT:          0  MISS:          0
L1D PREFETCH  REQUESTED:    8129411  ISSUED:    7960487  USEFUL:     199620  USELESS:     519819
L1D AVERAGE MISS LATENCY: 32.6273 cycles
L1I TOTAL     ACCESS:   29313242  HIT:   28352556  MISS:     960686
L1I LOAD      ACCESS:    9760874  HIT:    9730936  MISS:      29938
L1I RFO       ACCESS:          0  HIT:          0  MISS:          0
L1I PREFETCH  ACCESS:   19552368  HIT:   18621620  MISS:     930748
L1I WRITEBACK ACCESS:          0  HIT:          0  MISS:          0
L1I PREFETCH  REQUESTED:   23070245  ISSUED:   23070245  USEFUL:     723193  USELESS:     207663
L1I AVERAGE MISS LATENCY: 17.8163 cycles
L2C TOTAL     ACCESS:    3643975  HIT:    3195854  MISS:     448121
L2C LOAD      ACCESS:     778256  HIT:     611685  MISS:     166571
L2C RFO       ACCESS:     104318  HIT:      18283  MISS:      86035
L2C PREFETCH  ACCESS:    2579414  HIT:    2384341  MISS:     195073
L2C WRITEBACK ACCESS:     181987  HIT:     181545  MISS:        442
L2C PREFETCH  REQUESTED:    3009601  ISSUED:    3003453  USEFUL:      18207  USELESS:     178815
L2C AVERAGE MISS LATENCY: 75.8006 cycles
LLC TOTAL     ACCESS:    1391571  HIT:    1211760  MISS:     179811
LLC LOAD      ACCESS:     166468  HIT:     143637  MISS:      22831
LLC RFO       ACCESS:      86033  HIT:      16385  MISS:      69648
LLC PREFETCH  ACCESS:    1003299  HIT:     916329  MISS:      86970
LLC WRITEBACK ACCESS:     135771  HIT:     135409  MISS:        362
LLC PREFETCH  REQUESTED:          0  ISSUED:          0  USEFUL:      25852  USELESS:      68061
LLC AVERAGE MISS LATENCY: 166.289 cycles
Major fault: 0 Minor fault: 5304
CPU 0 L1I EPI prefetcher final stats
CPU 0 L1D next line prefetcher final stats

DRAM Statistics
 CHANNEL 0
 RQ ROW_BUFFER_HIT:      51400  ROW_BUFFER_MISS:     128033
 DBUS_CONGESTED:      97426
 WQ ROW_BUFFER_HIT:      24137  ROW_BUFFER_MISS:      66122  FULL:          0

 AVG_CONGESTED_CYCLE: 6

CPU 0 Branch Prediction Accuracy: 98.6482% MPKI: 3.1551 Average ROB Occupancy at Mispredict: 97.1305

Branch types
NOT_BRANCH: 38329598 76.6592%
BRANCH_DIRECT_JUMP: 510116 1.02023%
BRANCH_INDIRECT: 225730 0.45146%
BRANCH_CONDITIONAL: 8366762 16.7335%
BRANCH_DIRECT_CALL: 600748 1.2015%
BRANCH_INDIRECT_CALL: 682990 1.36598%
BRANCH_RETURN: 1283974 2.56795%
BRANCH_OTHER: 0 0%

