Initialize SIGNATURE TABLE
ST_SET: 1
ST_WAY: 256
ST_TAG_BIT: 16
ST_TAG_MASK: ffff

Initialize PATTERN TABLE
PT_SET: 512
PT_WAY: 4
SIG_DELTA_BIT: 7
C_SIG_BIT: 4
C_DELTA_BIT: 4

Initialize PREFETCH FILTER
FILTER_SET: 1024

*** ChampSim Multicore Out-of-Order Simulator ***

Warmup Instructions: 50000000
Simulation Instructions: 50000000
Number of CPUs: 1
LLC sets: 2048
LLC ways: 16
Off-chip DRAM Size: 4096 MB Channels: 1 Width: 64-bit Data Rate: 3200 MT/s

CPU 0 runs /home/tapatil/CSE240C/SA1/ChampSim-master/ipc1_public/client_004.champsimtrace.xz
CPU 0 EPI prefetcher
CPU 0 L1D next line prefetcher
Heartbeat CPU 0 instructions: 10000000 cycles: 3592932 heartbeat IPC: 2.78324 cumulative IPC: 2.78324 (Simulation time: 0 hr 0 min 38 sec) 
Heartbeat CPU 0 instructions: 20000003 cycles: 7057285 heartbeat IPC: 2.88654 cumulative IPC: 2.83395 (Simulation time: 0 hr 1 min 12 sec) 
Heartbeat CPU 0 instructions: 30000000 cycles: 10648190 heartbeat IPC: 2.78481 cumulative IPC: 2.81738 (Simulation time: 0 hr 1 min 48 sec) 
Heartbeat CPU 0 instructions: 40000003 cycles: 14328987 heartbeat IPC: 2.7168 cumulative IPC: 2.79154 (Simulation time: 0 hr 2 min 25 sec) 
Heartbeat CPU 0 instructions: 50000001 cycles: 17847494 heartbeat IPC: 2.84211 cumulative IPC: 2.80151 (Simulation time: 0 hr 3 min 3 sec) 

Warmup complete CPU 0 instructions: 50000001 cycles: 17847494 (Simulation time: 0 hr 3 min 3 sec) 

Heartbeat CPU 0 instructions: 60000002 cycles: 25859396 heartbeat IPC: 1.24814 cumulative IPC: 1.24814 (Simulation time: 0 hr 3 min 34 sec) 
Heartbeat CPU 0 instructions: 70000001 cycles: 33823084 heartbeat IPC: 1.2557 cumulative IPC: 1.25191 (Simulation time: 0 hr 4 min 10 sec) 
Heartbeat CPU 0 instructions: 80000002 cycles: 42885251 heartbeat IPC: 1.10349 cumulative IPC: 1.19819 (Simulation time: 0 hr 4 min 42 sec) 
Heartbeat CPU 0 instructions: 90000000 cycles: 51182831 heartbeat IPC: 1.20517 cumulative IPC: 1.19993 (Simulation time: 0 hr 5 min 15 sec) 
Heartbeat CPU 0 instructions: 100000001 cycles: 59345982 heartbeat IPC: 1.22502 cumulative IPC: 1.20486 (Simulation time: 0 hr 5 min 49 sec) 
Finished CPU 0 instructions: 50000000 cycles: 41498488 cumulative IPC: 1.20486 (Simulation time: 0 hr 5 min 49 sec) 

ChampSim completed all CPUs

Region of Interest Statistics

CPU 0 cumulative IPC: 1.20486 instructions: 50000000 cycles: 41498488
L1D TOTAL     ACCESS:   21931711  HIT:   21042782  MISS:     888929
L1D LOAD      ACCESS:    8705968  HIT:    8310028  MISS:     395940
L1D RFO       ACCESS:    4812665  HIT:    4691282  MISS:     121383
L1D PREFETCH  ACCESS:    8413078  HIT:    8041472  MISS:     371606
L1D WRITEBACK ACCESS:          0  HIT:          0  MISS:          0
L1D PREFETCH  REQUESTED:    8745062  ISSUED:    8585225  USEFUL:     133112  USELESS:     238502
L1D AVERAGE MISS LATENCY: 29.178 cycles
L1I TOTAL     ACCESS:   28714927  HIT:   27877643  MISS:     837284
L1I LOAD      ACCESS:    9381842  HIT:    9270791  MISS:     111051
L1I RFO       ACCESS:          0  HIT:          0  MISS:          0
L1I PREFETCH  ACCESS:   19333085  HIT:   18606852  MISS:     726233
L1I WRITEBACK ACCESS:          0  HIT:          0  MISS:          0
L1I PREFETCH  REQUESTED:   23342217  ISSUED:   23342217  USEFUL:     489039  USELESS:     237207
L1I AVERAGE MISS LATENCY: 23.0478 cycles
L2C TOTAL     ACCESS:    2558049  HIT:    2277136  MISS:     280913
L2C LOAD      ACCESS:     468269  HIT:     374390  MISS:      93879
L2C RFO       ACCESS:     117380  HIT:      45966  MISS:      71414
L2C PREFETCH  ACCESS:    1750388  HIT:    1635410  MISS:     114978
L2C WRITEBACK ACCESS:     222012  HIT:     221370  MISS:        642
L2C PREFETCH  REQUESTED:    1657891  ISSUED:    1657361  USEFUL:      21715  USELESS:      92586
L2C AVERAGE MISS LATENCY: 74.8328 cycles
LLC TOTAL     ACCESS:     701448  HIT:     574433  MISS:     127015
LLC LOAD      ACCESS:      93820  HIT:      61501  MISS:      32319
LLC RFO       ACCESS:      71413  HIT:      41271  MISS:      30142
LLC PREFETCH  ACCESS:     436436  HIT:     372109  MISS:      64327
LLC WRITEBACK ACCESS:      99779  HIT:      99552  MISS:        227
LLC PREFETCH  REQUESTED:          0  ISSUED:          0  USEFUL:      27685  USELESS:      38635
LLC AVERAGE MISS LATENCY: 164.345 cycles
Major fault: 0 Minor fault: 3978
CPU 0 L1I EPI prefetcher final stats
CPU 0 L1D next line prefetcher final stats

DRAM Statistics
 CHANNEL 0
 RQ ROW_BUFFER_HIT:      30461  ROW_BUFFER_MISS:      96321
 DBUS_CONGESTED:      53497
 WQ ROW_BUFFER_HIT:      10261  ROW_BUFFER_MISS:      32739  FULL:          0

 AVG_CONGESTED_CYCLE: 6

CPU 0 Branch Prediction Accuracy: 94.1242% MPKI: 11.6089 Average ROB Occupancy at Mispredict: 56.0503

Branch types
NOT_BRANCH: 40121080 80.2422%
BRANCH_DIRECT_JUMP: 644555 1.28911%
BRANCH_INDIRECT: 201946 0.403892%
BRANCH_CONDITIONAL: 7003557 14.0071%
BRANCH_DIRECT_CALL: 564821 1.12964%
BRANCH_INDIRECT_CALL: 445012 0.890024%
BRANCH_RETURN: 1018716 2.03743%
BRANCH_OTHER: 0 0%

