Initialize SIGNATURE TABLE
ST_SET: 1
ST_WAY: 256
ST_TAG_BIT: 16
ST_TAG_MASK: ffff

Initialize PATTERN TABLE
PT_SET: 512
PT_WAY: 4
SIG_DELTA_BIT: 7
C_SIG_BIT: 4
C_DELTA_BIT: 4

Initialize PREFETCH FILTER
FILTER_SET: 1024

*** ChampSim Multicore Out-of-Order Simulator ***

Warmup Instructions: 50000000
Simulation Instructions: 50000000
Number of CPUs: 1
LLC sets: 2048
LLC ways: 16
Off-chip DRAM Size: 4096 MB Channels: 1 Width: 64-bit Data Rate: 3200 MT/s

CPU 0 runs /home/tapatil/CSE240C/SA1/ChampSim-master/ipc1_public/client_002.champsimtrace.xz
CPU 0 EPI prefetcher
CPU 0 L1D next line prefetcher
Heartbeat CPU 0 instructions: 10000000 cycles: 3405090 heartbeat IPC: 2.93678 cumulative IPC: 2.93678 (Simulation time: 0 hr 0 min 38 sec) 
Heartbeat CPU 0 instructions: 20000002 cycles: 6860724 heartbeat IPC: 2.89383 cumulative IPC: 2.91514 (Simulation time: 0 hr 1 min 18 sec) 
Heartbeat CPU 0 instructions: 30000001 cycles: 10293642 heartbeat IPC: 2.91297 cumulative IPC: 2.91442 (Simulation time: 0 hr 1 min 59 sec) 
Heartbeat CPU 0 instructions: 40000002 cycles: 13726708 heartbeat IPC: 2.91285 cumulative IPC: 2.91403 (Simulation time: 0 hr 2 min 39 sec) 
Heartbeat CPU 0 instructions: 50000002 cycles: 17167692 heartbeat IPC: 2.90615 cumulative IPC: 2.91245 (Simulation time: 0 hr 3 min 20 sec) 

Warmup complete CPU 0 instructions: 50000002 cycles: 17167692 (Simulation time: 0 hr 3 min 20 sec) 

Heartbeat CPU 0 instructions: 60000002 cycles: 23131268 heartbeat IPC: 1.67685 cumulative IPC: 1.67685 (Simulation time: 0 hr 3 min 57 sec) 
Heartbeat CPU 0 instructions: 70000001 cycles: 29151169 heartbeat IPC: 1.66116 cumulative IPC: 1.66896 (Simulation time: 0 hr 4 min 33 sec) 
Heartbeat CPU 0 instructions: 80000003 cycles: 35044911 heartbeat IPC: 1.69672 cumulative IPC: 1.67811 (Simulation time: 0 hr 5 min 9 sec) 
Heartbeat CPU 0 instructions: 90000000 cycles: 41541387 heartbeat IPC: 1.5393 cumulative IPC: 1.64111 (Simulation time: 0 hr 5 min 45 sec) 
Heartbeat CPU 0 instructions: 100000003 cycles: 47494004 heartbeat IPC: 1.67993 cumulative IPC: 1.64873 (Simulation time: 0 hr 6 min 20 sec) 
Finished CPU 0 instructions: 50000001 cycles: 30326312 cumulative IPC: 1.64873 (Simulation time: 0 hr 6 min 20 sec) 

ChampSim completed all CPUs

Region of Interest Statistics

CPU 0 cumulative IPC: 1.64873 instructions: 50000001 cycles: 30326312
L1D TOTAL     ACCESS:   19111418  HIT:   18772176  MISS:     339242
L1D LOAD      ACCESS:    6476151  HIT:    6359246  MISS:     116905
L1D RFO       ACCESS:    6419948  HIT:    6330166  MISS:      89782
L1D PREFETCH  ACCESS:    6215319  HIT:    6082764  MISS:     132555
L1D WRITEBACK ACCESS:          0  HIT:          0  MISS:          0
L1D PREFETCH  REQUESTED:    6486378  ISSUED:    6284739  USEFUL:      53741  USELESS:      78955
L1D AVERAGE MISS LATENCY: 49.2586 cycles
L1I TOTAL     ACCESS:   32860496  HIT:   31892174  MISS:     968322
L1I LOAD      ACCESS:    9529547  HIT:    9459308  MISS:      70239
L1I RFO       ACCESS:          0  HIT:          0  MISS:          0
L1I PREFETCH  ACCESS:   23330949  HIT:   22432866  MISS:     898083
L1I WRITEBACK ACCESS:          0  HIT:          0  MISS:          0
L1I PREFETCH  REQUESTED:   28260279  ISSUED:   28260279  USEFUL:     614470  USELESS:     283594
L1I AVERAGE MISS LATENCY: 17.8899 cycles
L2C TOTAL     ACCESS:    1860031  HIT:    1615655  MISS:     244376
L2C LOAD      ACCESS:     158563  HIT:     108617  MISS:      49946
L2C RFO       ACCESS:      88804  HIT:      22855  MISS:      65949
L2C PREFETCH  ACCESS:    1487169  HIT:    1359160  MISS:     128009
L2C WRITEBACK ACCESS:     125495  HIT:     125023  MISS:        472
L2C PREFETCH  REQUESTED:    1222549  ISSUED:    1221520  USEFUL:      13919  USELESS:     113161
L2C AVERAGE MISS LATENCY: 64.0929 cycles
LLC TOTAL     ACCESS:     616278  HIT:     552224  MISS:      64054
LLC LOAD      ACCESS:      49943  HIT:      43894  MISS:       6049
LLC RFO       ACCESS:      65948  HIT:      36488  MISS:      29460
LLC PREFETCH  ACCESS:     415985  HIT:     387661  MISS:      28324
LLC WRITEBACK ACCESS:      84402  HIT:      84181  MISS:        221
LLC PREFETCH  REQUESTED:          0  ISSUED:          0  USEFUL:       6269  USELESS:      20597
LLC AVERAGE MISS LATENCY: 179.056 cycles
Major fault: 0 Minor fault: 3094
CPU 0 L1I EPI prefetcher final stats
CPU 0 L1D next line prefetcher final stats

DRAM Statistics
 CHANNEL 0
 RQ ROW_BUFFER_HIT:      21985  ROW_BUFFER_MISS:      41848
 DBUS_CONGESTED:      43995
 WQ ROW_BUFFER_HIT:       9011  ROW_BUFFER_MISS:      28464  FULL:          0

 AVG_CONGESTED_CYCLE: 6

CPU 0 Branch Prediction Accuracy: 99.2117% MPKI: 1.49752 Average ROB Occupancy at Mispredict: 115.499

Branch types
NOT_BRANCH: 40501616 81.0032%
BRANCH_DIRECT_JUMP: 517397 1.03479%
BRANCH_INDIRECT: 112348 0.224696%
BRANCH_CONDITIONAL: 6698737 13.3975%
BRANCH_DIRECT_CALL: 960974 1.92195%
BRANCH_INDIRECT_CALL: 123707 0.247414%
BRANCH_RETURN: 1084929 2.16986%
BRANCH_OTHER: 0 0%

