Initialize SIGNATURE TABLE
ST_SET: 1
ST_WAY: 256
ST_TAG_BIT: 16
ST_TAG_MASK: ffff

Initialize PATTERN TABLE
PT_SET: 512
PT_WAY: 4
SIG_DELTA_BIT: 7
C_SIG_BIT: 4
C_DELTA_BIT: 4

Initialize PREFETCH FILTER
FILTER_SET: 1024

*** ChampSim Multicore Out-of-Order Simulator ***

Warmup Instructions: 50000000
Simulation Instructions: 50000000
Number of CPUs: 1
LLC sets: 2048
LLC ways: 16
Off-chip DRAM Size: 4096 MB Channels: 1 Width: 64-bit Data Rate: 3200 MT/s

CPU 0 runs /home/tapatil/CSE240C/SA1/ChampSim-master/ipc1_public/server_027.champsimtrace.xz
CPU 0 EPI prefetcher
CPU 0 L1D next line prefetcher
Heartbeat CPU 0 instructions: 10000001 cycles: 3525251 heartbeat IPC: 2.83668 cumulative IPC: 2.83668 (Simulation time: 0 hr 0 min 40 sec) 
Heartbeat CPU 0 instructions: 20000001 cycles: 7055131 heartbeat IPC: 2.83296 cumulative IPC: 2.83482 (Simulation time: 0 hr 1 min 20 sec) 
Heartbeat CPU 0 instructions: 30000002 cycles: 10580153 heartbeat IPC: 2.83686 cumulative IPC: 2.8355 (Simulation time: 0 hr 2 min 0 sec) 
Heartbeat CPU 0 instructions: 40000000 cycles: 14110615 heartbeat IPC: 2.83249 cumulative IPC: 2.83475 (Simulation time: 0 hr 2 min 40 sec) 
Heartbeat CPU 0 instructions: 50000001 cycles: 17634631 heartbeat IPC: 2.83767 cumulative IPC: 2.83533 (Simulation time: 0 hr 3 min 20 sec) 

Warmup complete CPU 0 instructions: 50000001 cycles: 17634631 (Simulation time: 0 hr 3 min 20 sec) 

Heartbeat CPU 0 instructions: 60000002 cycles: 24477469 heartbeat IPC: 1.46138 cumulative IPC: 1.46138 (Simulation time: 0 hr 4 min 2 sec) 
Heartbeat CPU 0 instructions: 70000003 cycles: 31262263 heartbeat IPC: 1.47388 cumulative IPC: 1.46761 (Simulation time: 0 hr 4 min 45 sec) 
Heartbeat CPU 0 instructions: 80000002 cycles: 38079259 heartbeat IPC: 1.46692 cumulative IPC: 1.46738 (Simulation time: 0 hr 5 min 27 sec) 
Heartbeat CPU 0 instructions: 90000001 cycles: 44953399 heartbeat IPC: 1.45473 cumulative IPC: 1.46419 (Simulation time: 0 hr 6 min 9 sec) 
Heartbeat CPU 0 instructions: 100000002 cycles: 51711096 heartbeat IPC: 1.47979 cumulative IPC: 1.46729 (Simulation time: 0 hr 6 min 50 sec) 
Finished CPU 0 instructions: 50000001 cycles: 34076465 cumulative IPC: 1.46729 (Simulation time: 0 hr 6 min 50 sec) 

ChampSim completed all CPUs

Region of Interest Statistics

CPU 0 cumulative IPC: 1.46729 instructions: 50000001 cycles: 34076465
L1D TOTAL     ACCESS:   19898615  HIT:   18296970  MISS:    1601645
L1D LOAD      ACCESS:    6948712  HIT:    6256831  MISS:     691881
L1D RFO       ACCESS:    6288218  HIT:    6002413  MISS:     285805
L1D PREFETCH  ACCESS:    6661685  HIT:    6037726  MISS:     623959
L1D WRITEBACK ACCESS:          0  HIT:          0  MISS:          0
L1D PREFETCH  REQUESTED:    6994113  ISSUED:    6867373  USEFUL:     149546  USELESS:     474425
L1D AVERAGE MISS LATENCY: 23.6118 cycles
L1I TOTAL     ACCESS:   28399771  HIT:   24981161  MISS:    3418610
L1I LOAD      ACCESS:    9461688  HIT:    9392536  MISS:      69152
L1I RFO       ACCESS:          0  HIT:          0  MISS:          0
L1I PREFETCH  ACCESS:   18938083  HIT:   15588625  MISS:    3349458
L1I WRITEBACK ACCESS:          0  HIT:          0  MISS:          0
L1I PREFETCH  REQUESTED:   23969446  ISSUED:   23969446  USEFUL:    2747322  USELESS:     602183
L1I AVERAGE MISS LATENCY: 19.3515 cycles
L2C TOTAL     ACCESS:    6871313  HIT:    6061424  MISS:     809889
L2C LOAD      ACCESS:     694849  HIT:     564067  MISS:     130782
L2C RFO       ACCESS:     283706  HIT:     196375  MISS:      87331
L2C PREFETCH  ACCESS:    5333455  HIT:    4746779  MISS:     586676
L2C WRITEBACK ACCESS:     559303  HIT:     554203  MISS:       5100
L2C PREFETCH  REQUESTED:    5637724  ISSUED:    5625145  USEFUL:      12876  USELESS:     573208
L2C AVERAGE MISS LATENCY: 38.3682 cycles
LLC TOTAL     ACCESS:    2687014  HIT:    2650049  MISS:      36965
LLC LOAD      ACCESS:     130541  HIT:     126863  MISS:       3678
LLC RFO       ACCESS:      87319  HIT:      73438  MISS:      13881
LLC PREFETCH  ACCESS:    2325332  HIT:    2306119  MISS:      19213
LLC WRITEBACK ACCESS:     143822  HIT:     143629  MISS:        193
LLC PREFETCH  REQUESTED:          0  ISSUED:          0  USEFUL:       1485  USELESS:      16396
LLC AVERAGE MISS LATENCY: 182.922 cycles
Major fault: 0 Minor fault: 2480
CPU 0 L1I EPI prefetcher final stats
CPU 0 L1D next line prefetcher final stats

DRAM Statistics
 CHANNEL 0
 RQ ROW_BUFFER_HIT:      11550  ROW_BUFFER_MISS:      25215
 DBUS_CONGESTED:      24051
 WQ ROW_BUFFER_HIT:       1690  ROW_BUFFER_MISS:      15267  FULL:          0

 AVG_CONGESTED_CYCLE: 6

CPU 0 Branch Prediction Accuracy: 99.8082% MPKI: 0.35064 Average ROB Occupancy at Mispredict: 192.195

Branch types
NOT_BRANCH: 40857507 81.715%
BRANCH_DIRECT_JUMP: 526635 1.05327%
BRANCH_INDIRECT: 205902 0.411804%
BRANCH_CONDITIONAL: 6184049 12.3681%
BRANCH_DIRECT_CALL: 938468 1.87694%
BRANCH_INDIRECT_CALL: 174486 0.348972%
BRANCH_RETURN: 1112959 2.22592%
BRANCH_OTHER: 0 0%

