Initialize SIGNATURE TABLE
ST_SET: 1
ST_WAY: 256
ST_TAG_BIT: 16
ST_TAG_MASK: ffff

Initialize PATTERN TABLE
PT_SET: 512
PT_WAY: 4
SIG_DELTA_BIT: 7
C_SIG_BIT: 4
C_DELTA_BIT: 4

Initialize PREFETCH FILTER
FILTER_SET: 1024

*** ChampSim Multicore Out-of-Order Simulator ***

Warmup Instructions: 50000000
Simulation Instructions: 50000000
Number of CPUs: 1
LLC sets: 2048
LLC ways: 16
Off-chip DRAM Size: 4096 MB Channels: 1 Width: 64-bit Data Rate: 3200 MT/s

CPU 0 runs /home/tapatil/CSE240C/SA1/ChampSim-master/ipc1_public/server_011.champsimtrace.xz
CPU 0 EPI prefetcher
CPU 0 L1D next line prefetcher
Heartbeat CPU 0 instructions: 10000002 cycles: 3206746 heartbeat IPC: 3.11843 cumulative IPC: 3.11843 (Simulation time: 0 hr 0 min 38 sec) 
Heartbeat CPU 0 instructions: 20000001 cycles: 6417893 heartbeat IPC: 3.11415 cumulative IPC: 3.11629 (Simulation time: 0 hr 1 min 16 sec) 
Heartbeat CPU 0 instructions: 30000001 cycles: 9672536 heartbeat IPC: 3.07253 cumulative IPC: 3.10157 (Simulation time: 0 hr 1 min 53 sec) 
Heartbeat CPU 0 instructions: 40000003 cycles: 12875357 heartbeat IPC: 3.12225 cumulative IPC: 3.10671 (Simulation time: 0 hr 2 min 31 sec) 
Heartbeat CPU 0 instructions: 50000000 cycles: 16084966 heartbeat IPC: 3.11564 cumulative IPC: 3.10849 (Simulation time: 0 hr 3 min 8 sec) 

Warmup complete CPU 0 instructions: 50000004 cycles: 16084967 (Simulation time: 0 hr 3 min 8 sec) 

Heartbeat CPU 0 instructions: 60000002 cycles: 23647615 heartbeat IPC: 1.32229 cumulative IPC: 1.32229 (Simulation time: 0 hr 3 min 44 sec) 
Heartbeat CPU 0 instructions: 70000001 cycles: 31634234 heartbeat IPC: 1.25209 cumulative IPC: 1.28623 (Simulation time: 0 hr 4 min 20 sec) 
Heartbeat CPU 0 instructions: 80000003 cycles: 40927219 heartbeat IPC: 1.07608 cumulative IPC: 1.20762 (Simulation time: 0 hr 4 min 52 sec) 
Heartbeat CPU 0 instructions: 90000001 cycles: 48692749 heartbeat IPC: 1.28774 cumulative IPC: 1.2267 (Simulation time: 0 hr 5 min 27 sec) 
Heartbeat CPU 0 instructions: 100000000 cycles: 56196380 heartbeat IPC: 1.33269 cumulative IPC: 1.24653 (Simulation time: 0 hr 6 min 3 sec) 
Finished CPU 0 instructions: 50000003 cycles: 40111425 cumulative IPC: 1.24653 (Simulation time: 0 hr 6 min 3 sec) 

ChampSim completed all CPUs

Region of Interest Statistics

CPU 0 cumulative IPC: 1.24653 instructions: 50000003 cycles: 40111425
L1D TOTAL     ACCESS:   18223593  HIT:   17192396  MISS:    1031197
L1D LOAD      ACCESS:    6811814  HIT:    6331202  MISS:     480612
L1D RFO       ACCESS:    4836976  HIT:    4754999  MISS:      81977
L1D PREFETCH  ACCESS:    6574803  HIT:    6106195  MISS:     468608
L1D WRITEBACK ACCESS:          0  HIT:          0  MISS:          0
L1D PREFETCH  REQUESTED:    6848528  ISSUED:    6755302  USEFUL:     138311  USELESS:     330293
L1D AVERAGE MISS LATENCY: 39.7485 cycles
L1I TOTAL     ACCESS:   28084841  HIT:   26408824  MISS:    1676017
L1I LOAD      ACCESS:    8859395  HIT:    8709832  MISS:     149563
L1I RFO       ACCESS:          0  HIT:          0  MISS:          0
L1I PREFETCH  ACCESS:   19225446  HIT:   17698992  MISS:    1526454
L1I WRITEBACK ACCESS:          0  HIT:          0  MISS:          0
L1I PREFETCH  REQUESTED:   22617144  ISSUED:   22617144  USEFUL:    1122358  USELESS:     404043
L1I AVERAGE MISS LATENCY: 31.3289 cycles
L2C TOTAL     ACCESS:    3528304  HIT:    2425093  MISS:    1103211
L2C LOAD      ACCESS:     565510  HIT:     285867  MISS:     279643
L2C RFO       ACCESS:      80155  HIT:      34937  MISS:      45218
L2C PREFETCH  ACCESS:    2614535  HIT:    1837203  MISS:     777332
L2C WRITEBACK ACCESS:     268104  HIT:     267086  MISS:       1018
L2C PREFETCH  REQUESTED:    3298757  ISSUED:    3293320  USEFUL:      33817  USELESS:     743540
L2C AVERAGE MISS LATENCY: 49.1922 cycles
LLC TOTAL     ACCESS:    2173870  HIT:    1995216  MISS:     178654
LLC LOAD      ACCESS:     278191  HIT:     244111  MISS:      34080
LLC RFO       ACCESS:      45210  HIT:      32291  MISS:      12919
LLC PREFETCH  ACCESS:    1700023  HIT:    1568791  MISS:     131232
LLC WRITEBACK ACCESS:     150446  HIT:     150023  MISS:        423
LLC PREFETCH  REQUESTED:          0  ISSUED:          0  USEFUL:      23335  USELESS:     107450
LLC AVERAGE MISS LATENCY: 168.739 cycles
Major fault: 0 Minor fault: 6976
CPU 0 L1I EPI prefetcher final stats
CPU 0 L1D next line prefetcher final stats

DRAM Statistics
 CHANNEL 0
 RQ ROW_BUFFER_HIT:      32875  ROW_BUFFER_MISS:     145342
 DBUS_CONGESTED:      77809
 WQ ROW_BUFFER_HIT:      13324  ROW_BUFFER_MISS:      47660  FULL:          0

 AVG_CONGESTED_CYCLE: 5

CPU 0 Branch Prediction Accuracy: 97.5565% MPKI: 4.59006 Average ROB Occupancy at Mispredict: 59.9554

Branch types
NOT_BRANCH: 40607199 81.2144%
BRANCH_DIRECT_JUMP: 451601 0.903202%
BRANCH_INDIRECT: 151580 0.30316%
BRANCH_CONDITIONAL: 7041635 14.0833%
BRANCH_DIRECT_CALL: 647827 1.29565%
BRANCH_INDIRECT_CALL: 211373 0.422746%
BRANCH_RETURN: 888439 1.77688%
BRANCH_OTHER: 0 0%

