Initialize SIGNATURE TABLE
ST_SET: 1
ST_WAY: 256
ST_TAG_BIT: 16
ST_TAG_MASK: ffff

Initialize PATTERN TABLE
PT_SET: 512
PT_WAY: 4
SIG_DELTA_BIT: 7
C_SIG_BIT: 4
C_DELTA_BIT: 4

Initialize PREFETCH FILTER
FILTER_SET: 1024

*** ChampSim Multicore Out-of-Order Simulator ***

Warmup Instructions: 50000000
Simulation Instructions: 50000000
Number of CPUs: 1
LLC sets: 2048
LLC ways: 16
Off-chip DRAM Size: 4096 MB Channels: 1 Width: 64-bit Data Rate: 3200 MT/s

CPU 0 runs /home/tapatil/CSE240C/SA1/ChampSim-master/ipc1_public/server_023.champsimtrace.xz
CPU 0 EPI prefetcher
CPU 0 L1D next line prefetcher
Heartbeat CPU 0 instructions: 10000000 cycles: 3498674 heartbeat IPC: 2.85823 cumulative IPC: 2.85823 (Simulation time: 0 hr 0 min 38 sec) 
Heartbeat CPU 0 instructions: 20000000 cycles: 6996486 heartbeat IPC: 2.85893 cumulative IPC: 2.85858 (Simulation time: 0 hr 1 min 16 sec) 
Heartbeat CPU 0 instructions: 30000001 cycles: 10487193 heartbeat IPC: 2.86475 cumulative IPC: 2.86063 (Simulation time: 0 hr 1 min 55 sec) 
Heartbeat CPU 0 instructions: 40000003 cycles: 13984026 heartbeat IPC: 2.85973 cumulative IPC: 2.86041 (Simulation time: 0 hr 2 min 34 sec) 
Heartbeat CPU 0 instructions: 50000001 cycles: 17482788 heartbeat IPC: 2.85815 cumulative IPC: 2.85996 (Simulation time: 0 hr 3 min 12 sec) 

Warmup complete CPU 0 instructions: 50000001 cycles: 17482788 (Simulation time: 0 hr 3 min 12 sec) 

Heartbeat CPU 0 instructions: 60000002 cycles: 24208881 heartbeat IPC: 1.48675 cumulative IPC: 1.48675 (Simulation time: 0 hr 3 min 52 sec) 
Heartbeat CPU 0 instructions: 70000002 cycles: 31168256 heartbeat IPC: 1.43691 cumulative IPC: 1.4614 (Simulation time: 0 hr 4 min 33 sec) 
Heartbeat CPU 0 instructions: 80000000 cycles: 38001260 heartbeat IPC: 1.46348 cumulative IPC: 1.4621 (Simulation time: 0 hr 5 min 13 sec) 
Heartbeat CPU 0 instructions: 90000000 cycles: 44897818 heartbeat IPC: 1.45 cumulative IPC: 1.45905 (Simulation time: 0 hr 5 min 50 sec) 
Heartbeat CPU 0 instructions: 100000001 cycles: 51694779 heartbeat IPC: 1.47125 cumulative IPC: 1.46148 (Simulation time: 0 hr 6 min 31 sec) 
Finished CPU 0 instructions: 50000000 cycles: 34211991 cumulative IPC: 1.46148 (Simulation time: 0 hr 6 min 31 sec) 

ChampSim completed all CPUs

Region of Interest Statistics

CPU 0 cumulative IPC: 1.46148 instructions: 50000000 cycles: 34211991
L1D TOTAL     ACCESS:   19352040  HIT:   17885175  MISS:    1466865
L1D LOAD      ACCESS:    6846387  HIT:    6184708  MISS:     661679
L1D RFO       ACCESS:    5982458  HIT:    5721039  MISS:     261419
L1D PREFETCH  ACCESS:    6523195  HIT:    5979428  MISS:     543767
L1D WRITEBACK ACCESS:          0  HIT:          0  MISS:          0
L1D PREFETCH  REQUESTED:    6896668  ISSUED:    6775081  USEFUL:     129140  USELESS:     414635
L1D AVERAGE MISS LATENCY: 24.356 cycles
L1I TOTAL     ACCESS:   28510088  HIT:   25552256  MISS:    2957832
L1I LOAD      ACCESS:    9419057  HIT:    9350380  MISS:      68677
L1I RFO       ACCESS:          0  HIT:          0  MISS:          0
L1I PREFETCH  ACCESS:   19091031  HIT:   16201876  MISS:    2889155
L1I WRITEBACK ACCESS:          0  HIT:          0  MISS:          0
L1I PREFETCH  REQUESTED:   24819512  ISSUED:   24819512  USEFUL:    2384814  USELESS:     504356
L1I AVERAGE MISS LATENCY: 18.8773 cycles
L2C TOTAL     ACCESS:    6124893  HIT:    5455323  MISS:     669570
L2C LOAD      ACCESS:     639144  HIT:     518607  MISS:     120537
L2C RFO       ACCESS:     259356  HIT:     170005  MISS:      89351
L2C PREFETCH  ACCESS:    4727123  HIT:    4269477  MISS:     457646
L2C WRITEBACK ACCESS:     499270  HIT:     497234  MISS:       2036
L2C PREFETCH  REQUESTED:    5407339  ISSUED:    5396240  USEFUL:      16009  USELESS:     441419
L2C AVERAGE MISS LATENCY: 42.5792 cycles
LLC TOTAL     ACCESS:    2231573  HIT:    2177002  MISS:      54571
LLC LOAD      ACCESS:     120244  HIT:     113569  MISS:       6675
LLC RFO       ACCESS:      89336  HIT:      71473  MISS:      17863
LLC PREFETCH  ACCESS:    1883785  HIT:    1854095  MISS:      29690
LLC WRITEBACK ACCESS:     138208  HIT:     137865  MISS:        343
LLC PREFETCH  REQUESTED:          0  ISSUED:          0  USEFUL:       2694  USELESS:      26983
LLC AVERAGE MISS LATENCY: 180.278 cycles
Major fault: 0 Minor fault: 2769
CPU 0 L1I EPI prefetcher final stats
CPU 0 L1D next line prefetcher final stats

DRAM Statistics
 CHANNEL 0
 RQ ROW_BUFFER_HIT:      15923  ROW_BUFFER_MISS:      38285
 DBUS_CONGESTED:      32877
 WQ ROW_BUFFER_HIT:       2461  ROW_BUFFER_MISS:      19049  FULL:          0

 AVG_CONGESTED_CYCLE: 6

CPU 0 Branch Prediction Accuracy: 99.6798% MPKI: 0.58608 Average ROB Occupancy at Mispredict: 147.817

Branch types
NOT_BRANCH: 40848334 81.6967%
BRANCH_DIRECT_JUMP: 548372 1.09674%
BRANCH_INDIRECT: 189802 0.379604%
BRANCH_CONDITIONAL: 6372772 12.7455%
BRANCH_DIRECT_CALL: 862207 1.72441%
BRANCH_INDIRECT_CALL: 158149 0.316298%
BRANCH_RETURN: 1020345 2.04069%
BRANCH_OTHER: 0 0%

