Initialize SIGNATURE TABLE
ST_SET: 1
ST_WAY: 256
ST_TAG_BIT: 16
ST_TAG_MASK: ffff

Initialize PATTERN TABLE
PT_SET: 512
PT_WAY: 4
SIG_DELTA_BIT: 7
C_SIG_BIT: 4
C_DELTA_BIT: 4

Initialize PREFETCH FILTER
FILTER_SET: 1024

*** ChampSim Multicore Out-of-Order Simulator ***

Warmup Instructions: 50000000
Simulation Instructions: 50000000
Number of CPUs: 1
LLC sets: 2048
LLC ways: 16
Off-chip DRAM Size: 4096 MB Channels: 1 Width: 64-bit Data Rate: 3200 MT/s

CPU 0 runs /home/tapatil/CSE240C/SA1/ChampSim-master/ipc1_public/server_003.champsimtrace.xz
CPU 0 EPI prefetcher
CPU 0 L1D next line prefetcher
Heartbeat CPU 0 instructions: 10000002 cycles: 3222788 heartbeat IPC: 3.1029 cumulative IPC: 3.1029 (Simulation time: 0 hr 0 min 37 sec) 
Heartbeat CPU 0 instructions: 20000000 cycles: 6541449 heartbeat IPC: 3.01326 cumulative IPC: 3.05743 (Simulation time: 0 hr 1 min 15 sec) 
Heartbeat CPU 0 instructions: 30000000 cycles: 9751311 heartbeat IPC: 3.1154 cumulative IPC: 3.07651 (Simulation time: 0 hr 1 min 54 sec) 
Heartbeat CPU 0 instructions: 40000001 cycles: 13166982 heartbeat IPC: 2.92768 cumulative IPC: 3.0379 (Simulation time: 0 hr 2 min 36 sec) 
Heartbeat CPU 0 instructions: 50000003 cycles: 16886169 heartbeat IPC: 2.68876 cumulative IPC: 2.961 (Simulation time: 0 hr 3 min 18 sec) 

Warmup complete CPU 0 instructions: 50000003 cycles: 16886169 (Simulation time: 0 hr 3 min 18 sec) 

Heartbeat CPU 0 instructions: 60000000 cycles: 25435345 heartbeat IPC: 1.1697 cumulative IPC: 1.1697 (Simulation time: 0 hr 3 min 59 sec) 
Heartbeat CPU 0 instructions: 70000003 cycles: 34072403 heartbeat IPC: 1.1578 cumulative IPC: 1.16372 (Simulation time: 0 hr 4 min 36 sec) 
Heartbeat CPU 0 instructions: 80000000 cycles: 43754178 heartbeat IPC: 1.03287 cumulative IPC: 1.11657 (Simulation time: 0 hr 5 min 14 sec) 
Heartbeat CPU 0 instructions: 90000001 cycles: 53560844 heartbeat IPC: 1.01971 cumulative IPC: 1.09067 (Simulation time: 0 hr 5 min 53 sec) 
Heartbeat CPU 0 instructions: 100000001 cycles: 63746746 heartbeat IPC: 0.981749 cumulative IPC: 1.06699 (Simulation time: 0 hr 6 min 31 sec) 
Finished CPU 0 instructions: 50000002 cycles: 46860578 cumulative IPC: 1.067 (Simulation time: 0 hr 6 min 31 sec) 

ChampSim completed all CPUs

Region of Interest Statistics

CPU 0 cumulative IPC: 1.067 instructions: 50000002 cycles: 46860578
L1D TOTAL     ACCESS:   19917096  HIT:   18776313  MISS:    1140783
L1D LOAD      ACCESS:    7814943  HIT:    7284161  MISS:     530782
L1D RFO       ACCESS:    4548718  HIT:    4431347  MISS:     117371
L1D PREFETCH  ACCESS:    7553435  HIT:    7060805  MISS:     492630
L1D WRITEBACK ACCESS:          0  HIT:          0  MISS:          0
L1D PREFETCH  REQUESTED:    7874593  ISSUED:    7783159  USEFUL:     154441  USELESS:     338148
L1D AVERAGE MISS LATENCY: 55.8005 cycles
L1I TOTAL     ACCESS:   37443545  HIT:   36067538  MISS:    1376007
L1I LOAD      ACCESS:    9295618  HIT:    9243020  MISS:      52598
L1I RFO       ACCESS:          0  HIT:          0  MISS:          0
L1I PREFETCH  ACCESS:   28147927  HIT:   26824518  MISS:    1323409
L1I WRITEBACK ACCESS:          0  HIT:          0  MISS:          0
L1I PREFETCH  REQUESTED:   38732973  ISSUED:   38732973  USEFUL:     911144  USELESS:     412268
L1I AVERAGE MISS LATENCY: 40.9923 cycles
L2C TOTAL     ACCESS:    3379982  HIT:    2392287  MISS:     987695
L2C LOAD      ACCESS:     536656  HIT:     305263  MISS:     231393
L2C RFO       ACCESS:     114667  HIT:      40479  MISS:      74188
L2C PREFETCH  ACCESS:    2444399  HIT:    1763385  MISS:     681014
L2C WRITEBACK ACCESS:     284260  HIT:     283160  MISS:       1100
L2C PREFETCH  REQUESTED:    2773735  ISSUED:    2770428  USEFUL:      27203  USELESS:     651271
L2C AVERAGE MISS LATENCY: 85.8557 cycles
LLC TOTAL     ACCESS:    1843490  HIT:    1471094  MISS:     372396
LLC LOAD      ACCESS:     231212  HIT:     171024  MISS:      60188
LLC RFO       ACCESS:      74188  HIT:      32420  MISS:      41768
LLC PREFETCH  ACCESS:    1372850  HIT:    1103819  MISS:     269031
LLC WRITEBACK ACCESS:     165240  HIT:     163831  MISS:       1409
LLC PREFETCH  REQUESTED:          0  ISSUED:          0  USEFUL:      25262  USELESS:     232792
LLC AVERAGE MISS LATENCY: 201.606 cycles
Major fault: 0 Minor fault: 7777
CPU 0 L1I EPI prefetcher final stats
CPU 0 L1D next line prefetcher final stats

DRAM Statistics
 CHANNEL 0
 RQ ROW_BUFFER_HIT:      87949  ROW_BUFFER_MISS:     282980
 DBUS_CONGESTED:     193347
 WQ ROW_BUFFER_HIT:      21090  ROW_BUFFER_MISS:      81456  FULL:          0

 AVG_CONGESTED_CYCLE: 5

CPU 0 Branch Prediction Accuracy: 95.439% MPKI: 9.02702 Average ROB Occupancy at Mispredict: 71.4314

Branch types
NOT_BRANCH: 40104088 80.2082%
BRANCH_DIRECT_JUMP: 497928 0.995856%
BRANCH_INDIRECT: 130587 0.261174%
BRANCH_CONDITIONAL: 7219018 14.438%
BRANCH_DIRECT_CALL: 625807 1.25161%
BRANCH_INDIRECT_CALL: 389787 0.779574%
BRANCH_RETURN: 1032747 2.06549%
BRANCH_OTHER: 0 0%

