Initialize SIGNATURE TABLE
ST_SET: 1
ST_WAY: 256
ST_TAG_BIT: 16
ST_TAG_MASK: ffff

Initialize PATTERN TABLE
PT_SET: 512
PT_WAY: 4
SIG_DELTA_BIT: 7
C_SIG_BIT: 4
C_DELTA_BIT: 4

Initialize PREFETCH FILTER
FILTER_SET: 1024

*** ChampSim Multicore Out-of-Order Simulator ***

Warmup Instructions: 50000000
Simulation Instructions: 50000000
Number of CPUs: 1
LLC sets: 2048
LLC ways: 16
Off-chip DRAM Size: 4096 MB Channels: 1 Width: 64-bit Data Rate: 3200 MT/s

CPU 0 runs /home/tapatil/CSE240C/SA1/ChampSim-master/ipc1_public/server_011.champsimtrace.xz
CPU 0 EPI prefetcher
CPU 0 L1D next line prefetcher
Heartbeat CPU 0 instructions: 10000002 cycles: 3206492 heartbeat IPC: 3.11867 cumulative IPC: 3.11867 (Simulation time: 0 hr 0 min 37 sec) 
Heartbeat CPU 0 instructions: 20000001 cycles: 6418922 heartbeat IPC: 3.11291 cumulative IPC: 3.11579 (Simulation time: 0 hr 1 min 16 sec) 
Heartbeat CPU 0 instructions: 30000001 cycles: 9674420 heartbeat IPC: 3.07173 cumulative IPC: 3.10096 (Simulation time: 0 hr 1 min 54 sec) 
Heartbeat CPU 0 instructions: 40000003 cycles: 12878397 heartbeat IPC: 3.12112 cumulative IPC: 3.10598 (Simulation time: 0 hr 2 min 32 sec) 
Heartbeat CPU 0 instructions: 50000000 cycles: 16088570 heartbeat IPC: 3.1151 cumulative IPC: 3.1078 (Simulation time: 0 hr 3 min 10 sec) 

Warmup complete CPU 0 instructions: 50000004 cycles: 16088571 (Simulation time: 0 hr 3 min 10 sec) 

Heartbeat CPU 0 instructions: 60000002 cycles: 23419684 heartbeat IPC: 1.36405 cumulative IPC: 1.36405 (Simulation time: 0 hr 3 min 48 sec) 
Heartbeat CPU 0 instructions: 70000001 cycles: 31097647 heartbeat IPC: 1.30243 cumulative IPC: 1.33253 (Simulation time: 0 hr 4 min 25 sec) 
Heartbeat CPU 0 instructions: 80000003 cycles: 39518558 heartbeat IPC: 1.18752 cumulative IPC: 1.28041 (Simulation time: 0 hr 4 min 58 sec) 
Heartbeat CPU 0 instructions: 90000001 cycles: 46936535 heartbeat IPC: 1.34808 cumulative IPC: 1.29668 (Simulation time: 0 hr 5 min 35 sec) 
Heartbeat CPU 0 instructions: 100000000 cycles: 54217846 heartbeat IPC: 1.37338 cumulative IPC: 1.31133 (Simulation time: 0 hr 6 min 12 sec) 
Finished CPU 0 instructions: 50000003 cycles: 38129287 cumulative IPC: 1.31133 (Simulation time: 0 hr 6 min 12 sec) 

ChampSim completed all CPUs

Region of Interest Statistics

CPU 0 cumulative IPC: 1.31133 instructions: 50000003 cycles: 38129287
L1D TOTAL     ACCESS:   18139341  HIT:   17108181  MISS:    1031160
L1D LOAD      ACCESS:    6772590  HIT:    6291063  MISS:     481527
L1D RFO       ACCESS:    4832058  HIT:    4750077  MISS:      81981
L1D PREFETCH  ACCESS:    6534693  HIT:    6067041  MISS:     467652
L1D WRITEBACK ACCESS:          0  HIT:          0  MISS:          0
L1D PREFETCH  REQUESTED:    6809305  ISSUED:    6717002  USEFUL:     137395  USELESS:     330253
L1D AVERAGE MISS LATENCY: 40.7548 cycles
L1I TOTAL     ACCESS:   33562989  HIT:   31796225  MISS:    1766764
L1I LOAD      ACCESS:    8885086  HIT:    8825287  MISS:      59799
L1I RFO       ACCESS:          0  HIT:          0  MISS:          0
L1I PREFETCH  ACCESS:   24677903  HIT:   22970938  MISS:    1706965
L1I WRITEBACK ACCESS:          0  HIT:          0  MISS:          0
L1I PREFETCH  REQUESTED:   33094693  ISSUED:   33094693  USEFUL:    1225993  USELESS:     480911
L1I AVERAGE MISS LATENCY: 33.4329 cycles
L2C TOTAL     ACCESS:    3658261  HIT:    2531292  MISS:    1126969
L2C LOAD      ACCESS:     492147  HIT:     267949  MISS:     224198
L2C RFO       ACCESS:      80161  HIT:      34577  MISS:      45584
L2C PREFETCH  ACCESS:    2817848  HIT:    1961807  MISS:     856041
L2C WRITEBACK ACCESS:     268105  HIT:     266959  MISS:       1146
L2C PREFETCH  REQUESTED:    3497945  ISSUED:    3490868  USEFUL:      27094  USELESS:     828622
L2C AVERAGE MISS LATENCY: 53.1754 cycles
LLC TOTAL     ACCESS:    2161777  HIT:    1974226  MISS:     187551
LLC LOAD      ACCESS:     224072  HIT:     200137  MISS:      23935
LLC RFO       ACCESS:      45576  HIT:      32654  MISS:      12922
LLC PREFETCH  ACCESS:    1740465  HIT:    1590209  MISS:     150256
LLC WRITEBACK ACCESS:     151664  HIT:     151226  MISS:        438
LLC PREFETCH  REQUESTED:          0  ISSUED:          0  USEFUL:      13722  USELESS:     133186
LLC AVERAGE MISS LATENCY: 183.967 cycles
Major fault: 0 Minor fault: 6980
CPU 0 L1I EPI prefetcher final stats
CPU 0 L1D next line prefetcher final stats

DRAM Statistics
 CHANNEL 0
 RQ ROW_BUFFER_HIT:      37184  ROW_BUFFER_MISS:     149902
 DBUS_CONGESTED:      86626
 WQ ROW_BUFFER_HIT:      11862  ROW_BUFFER_MISS:      49422  FULL:          0

 AVG_CONGESTED_CYCLE: 5

CPU 0 Branch Prediction Accuracy: 97.5565% MPKI: 4.59006 Average ROB Occupancy at Mispredict: 64.6474

Branch types
NOT_BRANCH: 40607199 81.2144%
BRANCH_DIRECT_JUMP: 451601 0.903202%
BRANCH_INDIRECT: 151580 0.30316%
BRANCH_CONDITIONAL: 7041635 14.0833%
BRANCH_DIRECT_CALL: 647827 1.29565%
BRANCH_INDIRECT_CALL: 211373 0.422746%
BRANCH_RETURN: 888439 1.77688%
BRANCH_OTHER: 0 0%

