Initialize SIGNATURE TABLE
ST_SET: 1
ST_WAY: 256
ST_TAG_BIT: 16
ST_TAG_MASK: ffff

Initialize PATTERN TABLE
PT_SET: 512
PT_WAY: 4
SIG_DELTA_BIT: 7
C_SIG_BIT: 4
C_DELTA_BIT: 4

Initialize PREFETCH FILTER
FILTER_SET: 1024

*** ChampSim Multicore Out-of-Order Simulator ***

Warmup Instructions: 50000000
Simulation Instructions: 50000000
Number of CPUs: 1
LLC sets: 2048
LLC ways: 16
Off-chip DRAM Size: 4096 MB Channels: 1 Width: 64-bit Data Rate: 3200 MT/s

CPU 0 runs /home/tapatil/CSE240C/SA1/ChampSim-master/ipc1_public/server_030.champsimtrace.xz
CPU 0 EPI prefetcher
CPU 0 L1D next line prefetcher
Heartbeat CPU 0 instructions: 10000003 cycles: 3504613 heartbeat IPC: 2.85338 cumulative IPC: 2.85338 (Simulation time: 0 hr 0 min 40 sec) 
Heartbeat CPU 0 instructions: 20000003 cycles: 7009062 heartbeat IPC: 2.85352 cumulative IPC: 2.85345 (Simulation time: 0 hr 1 min 20 sec) 
Heartbeat CPU 0 instructions: 30000000 cycles: 10512803 heartbeat IPC: 2.85409 cumulative IPC: 2.85366 (Simulation time: 0 hr 1 min 59 sec) 
Heartbeat CPU 0 instructions: 40000002 cycles: 14017061 heartbeat IPC: 2.85367 cumulative IPC: 2.85367 (Simulation time: 0 hr 2 min 39 sec) 
Heartbeat CPU 0 instructions: 50000002 cycles: 17524163 heartbeat IPC: 2.85136 cumulative IPC: 2.8532 (Simulation time: 0 hr 3 min 18 sec) 

Warmup complete CPU 0 instructions: 50000002 cycles: 17524163 (Simulation time: 0 hr 3 min 18 sec) 

Heartbeat CPU 0 instructions: 60000000 cycles: 24477486 heartbeat IPC: 1.43816 cumulative IPC: 1.43816 (Simulation time: 0 hr 3 min 59 sec) 
Heartbeat CPU 0 instructions: 70000000 cycles: 31437358 heartbeat IPC: 1.43681 cumulative IPC: 1.43748 (Simulation time: 0 hr 4 min 40 sec) 
Heartbeat CPU 0 instructions: 80000001 cycles: 38395887 heartbeat IPC: 1.43709 cumulative IPC: 1.43735 (Simulation time: 0 hr 5 min 21 sec) 
*** Reached end of trace for Core: 0 Repeating trace: /home/tapatil/CSE240C/SA1/ChampSim-master/ipc1_public/server_030.champsimtrace.xz
Heartbeat CPU 0 instructions: 90000002 cycles: 45355091 heartbeat IPC: 1.43695 cumulative IPC: 1.43725 (Simulation time: 0 hr 6 min 3 sec) 
Heartbeat CPU 0 instructions: 100000002 cycles: 52298467 heartbeat IPC: 1.44022 cumulative IPC: 1.43784 (Simulation time: 0 hr 6 min 44 sec) 
Finished CPU 0 instructions: 50000000 cycles: 34774304 cumulative IPC: 1.43784 (Simulation time: 0 hr 6 min 44 sec) 

ChampSim completed all CPUs

Region of Interest Statistics

CPU 0 cumulative IPC: 1.43784 instructions: 50000000 cycles: 34774304
L1D TOTAL     ACCESS:   19163262  HIT:   17087374  MISS:    2075888
L1D LOAD      ACCESS:    6767497  HIT:    5714471  MISS:    1053026
L1D RFO       ACCESS:    6174270  HIT:    5888544  MISS:     285726
L1D PREFETCH  ACCESS:    6221495  HIT:    5484359  MISS:     737136
L1D WRITEBACK ACCESS:          0  HIT:          0  MISS:          0
L1D PREFETCH  REQUESTED:    6818244  ISSUED:    6684085  USEFUL:     181590  USELESS:     555638
L1D AVERAGE MISS LATENCY: 18.4902 cycles
L1I TOTAL     ACCESS:   29036182  HIT:   25537324  MISS:    3498858
L1I LOAD      ACCESS:    9793392  HIT:    9744713  MISS:      48679
L1I RFO       ACCESS:          0  HIT:          0  MISS:          0
L1I PREFETCH  ACCESS:   19242790  HIT:   15792611  MISS:    3450179
L1I WRITEBACK ACCESS:          0  HIT:          0  MISS:          0
L1I PREFETCH  REQUESTED:   23921494  ISSUED:   23921494  USEFUL:    2940919  USELESS:     509280
L1I AVERAGE MISS LATENCY: 17.9845 cycles
L2C TOTAL     ACCESS:    7892962  HIT:    7270364  MISS:     622598
L2C LOAD      ACCESS:     914779  HIT:     798306  MISS:     116473
L2C RFO       ACCESS:     283396  HIT:     233410  MISS:      49986
L2C PREFETCH  ACCESS:    6079276  HIT:    5626422  MISS:     452854
L2C WRITEBACK ACCESS:     615511  HIT:     612226  MISS:       3285
L2C PREFETCH  REQUESTED:    6758645  ISSUED:    6740241  USEFUL:      10030  USELESS:     442311
L2C AVERAGE MISS LATENCY: 35.0524 cycles
LLC TOTAL     ACCESS:    2353054  HIT:    2329232  MISS:      23822
LLC LOAD      ACCESS:     116345  HIT:     113345  MISS:       3000
LLC RFO       ACCESS:      49978  HIT:      48198  MISS:       1780
LLC PREFETCH  ACCESS:    2089928  HIT:    2071009  MISS:      18919
LLC WRITEBACK ACCESS:      96803  HIT:      96680  MISS:        123
LLC PREFETCH  REQUESTED:          0  ISSUED:          0  USEFUL:        884  USELESS:      16931
LLC AVERAGE MISS LATENCY: 148.371 cycles
Major fault: 0 Minor fault: 2041
CPU 0 L1I EPI prefetcher final stats
CPU 0 L1D next line prefetcher final stats

DRAM Statistics
 CHANNEL 0
 RQ ROW_BUFFER_HIT:       7135  ROW_BUFFER_MISS:      16564
 DBUS_CONGESTED:       7246
 WQ ROW_BUFFER_HIT:        176  ROW_BUFFER_MISS:       2449  FULL:          0

 AVG_CONGESTED_CYCLE: 5

CPU 0 Branch Prediction Accuracy: 99.8445% MPKI: 0.29148 Average ROB Occupancy at Mispredict: 177.222

Branch types
NOT_BRANCH: 40628081 81.2562%
BRANCH_DIRECT_JUMP: 490941 0.981882%
BRANCH_INDIRECT: 175854 0.351708%
BRANCH_CONDITIONAL: 6321415 12.6428%
BRANCH_DIRECT_CALL: 1002072 2.00414%
BRANCH_INDIRECT_CALL: 189783 0.379566%
BRANCH_RETURN: 1191851 2.3837%
BRANCH_OTHER: 0 0%

