Initialize SIGNATURE TABLE
ST_SET: 1
ST_WAY: 256
ST_TAG_BIT: 16
ST_TAG_MASK: ffff

Initialize PATTERN TABLE
PT_SET: 512
PT_WAY: 4
SIG_DELTA_BIT: 7
C_SIG_BIT: 4
C_DELTA_BIT: 4

Initialize PREFETCH FILTER
FILTER_SET: 1024

*** ChampSim Multicore Out-of-Order Simulator ***

Warmup Instructions: 50000000
Simulation Instructions: 50000000
Number of CPUs: 1
LLC sets: 2048
LLC ways: 16
Off-chip DRAM Size: 4096 MB Channels: 1 Width: 64-bit Data Rate: 3200 MT/s

CPU 0 runs /home/tapatil/CSE240C/SA1/ChampSim-master/ipc1_public/server_015.champsimtrace.xz
CPU 0 EPI prefetcher
CPU 0 L1D next line prefetcher
Heartbeat CPU 0 instructions: 10000002 cycles: 3519398 heartbeat IPC: 2.8414 cumulative IPC: 2.8414 (Simulation time: 0 hr 0 min 41 sec) 
Heartbeat CPU 0 instructions: 20000001 cycles: 7107166 heartbeat IPC: 2.78725 cumulative IPC: 2.81406 (Simulation time: 0 hr 1 min 22 sec) 
Heartbeat CPU 0 instructions: 30000001 cycles: 10646119 heartbeat IPC: 2.82569 cumulative IPC: 2.81793 (Simulation time: 0 hr 2 min 5 sec) 
Heartbeat CPU 0 instructions: 40000002 cycles: 14194160 heartbeat IPC: 2.81846 cumulative IPC: 2.81806 (Simulation time: 0 hr 2 min 48 sec) 
Heartbeat CPU 0 instructions: 50000002 cycles: 17742420 heartbeat IPC: 2.81828 cumulative IPC: 2.8181 (Simulation time: 0 hr 3 min 31 sec) 

Warmup complete CPU 0 instructions: 50000002 cycles: 17742420 (Simulation time: 0 hr 3 min 31 sec) 

Heartbeat CPU 0 instructions: 60000002 cycles: 24040760 heartbeat IPC: 1.58772 cumulative IPC: 1.58772 (Simulation time: 0 hr 4 min 17 sec) 
Heartbeat CPU 0 instructions: 70000003 cycles: 30349383 heartbeat IPC: 1.58513 cumulative IPC: 1.58642 (Simulation time: 0 hr 5 min 3 sec) 
Heartbeat CPU 0 instructions: 80000000 cycles: 36657752 heartbeat IPC: 1.5852 cumulative IPC: 1.58601 (Simulation time: 0 hr 5 min 49 sec) 
Heartbeat CPU 0 instructions: 90000000 cycles: 42970020 heartbeat IPC: 1.58422 cumulative IPC: 1.58556 (Simulation time: 0 hr 6 min 36 sec) 
Heartbeat CPU 0 instructions: 100000002 cycles: 49279402 heartbeat IPC: 1.58494 cumulative IPC: 1.58544 (Simulation time: 0 hr 7 min 22 sec) 
Finished CPU 0 instructions: 50000000 cycles: 31536982 cumulative IPC: 1.58544 (Simulation time: 0 hr 7 min 22 sec) 

ChampSim completed all CPUs

Region of Interest Statistics

CPU 0 cumulative IPC: 1.58544 instructions: 50000000 cycles: 31536982
L1D TOTAL     ACCESS:   21822885  HIT:   21806118  MISS:      16767
L1D LOAD      ACCESS:    6688283  HIT:    6687753  MISS:        530
L1D RFO       ACCESS:    8561368  HIT:    8561272  MISS:         96
L1D PREFETCH  ACCESS:    6573234  HIT:    6557093  MISS:      16141
L1D WRITEBACK ACCESS:          0  HIT:          0  MISS:          0
L1D PREFETCH  REQUESTED:    6688344  ISSUED:    6577669  USEFUL:         84  USELESS:      16055
L1D AVERAGE MISS LATENCY: 16.7089 cycles
L1I TOTAL     ACCESS:   49991334  HIT:   47599062  MISS:    2392272
L1I LOAD      ACCESS:    9789742  HIT:    9758921  MISS:      30821
L1I RFO       ACCESS:          0  HIT:          0  MISS:          0
L1I PREFETCH  ACCESS:   40201592  HIT:   37840141  MISS:    2361451
L1I WRITEBACK ACCESS:          0  HIT:          0  MISS:          0
L1I PREFETCH  REQUESTED:   49335545  ISSUED:   49335545  USEFUL:    1831403  USELESS:     530084
L1I AVERAGE MISS LATENCY: 14.2936 cycles
L2C TOTAL     ACCESS:    3324728  HIT:    3324274  MISS:        454
L2C LOAD      ACCESS:      19570  HIT:      19498  MISS:         72
L2C RFO       ACCESS:         94  HIT:         92  MISS:          2
L2C PREFETCH  ACCESS:    3304716  HIT:    3304336  MISS:        380
L2C WRITEBACK ACCESS:        348  HIT:        348  MISS:          0
L2C PREFETCH  REQUESTED:    1913094  ISSUED:    1913077  USEFUL:         75  USELESS:        165
L2C AVERAGE MISS LATENCY: 248.837 cycles
LLC TOTAL     ACCESS:     306224  HIT:     305460  MISS:        764
LLC LOAD      ACCESS:         72  HIT:         56  MISS:         16
LLC RFO       ACCESS:          2  HIT:          0  MISS:          2
LLC PREFETCH  ACCESS:     306001  HIT:     305259  MISS:        742
LLC WRITEBACK ACCESS:        149  HIT:        145  MISS:          4
LLC PREFETCH  REQUESTED:          0  ISSUED:          0  USEFUL:          7  USELESS:        129
LLC AVERAGE MISS LATENCY: 631.263 cycles
Major fault: 0 Minor fault: 1890
CPU 0 L1I EPI prefetcher final stats
CPU 0 L1D next line prefetcher final stats

DRAM Statistics
 CHANNEL 0
 RQ ROW_BUFFER_HIT:        188  ROW_BUFFER_MISS:        572
 DBUS_CONGESTED:        542
 WQ ROW_BUFFER_HIT:         76  ROW_BUFFER_MISS:        479  FULL:          0

 AVG_CONGESTED_CYCLE: 6

CPU 0 Branch Prediction Accuracy: 99.9085% MPKI: 0.15428 Average ROB Occupancy at Mispredict: 298.784

Branch types
NOT_BRANCH: 41573152 83.1463%
BRANCH_DIRECT_JUMP: 436254 0.872508%
BRANCH_INDIRECT: 0 0%
BRANCH_CONDITIONAL: 5395897 10.7918%
BRANCH_DIRECT_CALL: 1173391 2.34678%
BRANCH_INDIRECT_CALL: 123912 0.247824%
BRANCH_RETURN: 1297311 2.59462%
BRANCH_OTHER: 0 0%

