Initialize SIGNATURE TABLE
ST_SET: 1
ST_WAY: 256
ST_TAG_BIT: 16
ST_TAG_MASK: ffff

Initialize PATTERN TABLE
PT_SET: 512
PT_WAY: 4
SIG_DELTA_BIT: 7
C_SIG_BIT: 4
C_DELTA_BIT: 4

Initialize PREFETCH FILTER
FILTER_SET: 1024

*** ChampSim Multicore Out-of-Order Simulator ***

Warmup Instructions: 50000000
Simulation Instructions: 50000000
Number of CPUs: 1
LLC sets: 2048
LLC ways: 16
Off-chip DRAM Size: 4096 MB Channels: 1 Width: 64-bit Data Rate: 3200 MT/s

CPU 0 runs /home/tapatil/CSE240C/SA1/ChampSim-master/ipc1_public/server_025.champsimtrace.xz
CPU 0 EPI prefetcher
CPU 0 L1D next line prefetcher
Heartbeat CPU 0 instructions: 10000003 cycles: 3525154 heartbeat IPC: 2.83676 cumulative IPC: 2.83676 (Simulation time: 0 hr 0 min 40 sec) 
Heartbeat CPU 0 instructions: 20000000 cycles: 7057116 heartbeat IPC: 2.83129 cumulative IPC: 2.83402 (Simulation time: 0 hr 1 min 20 sec) 
Heartbeat CPU 0 instructions: 30000001 cycles: 10581401 heartbeat IPC: 2.83746 cumulative IPC: 2.83516 (Simulation time: 0 hr 1 min 59 sec) 
Heartbeat CPU 0 instructions: 40000003 cycles: 14111684 heartbeat IPC: 2.83263 cumulative IPC: 2.83453 (Simulation time: 0 hr 2 min 39 sec) 
Heartbeat CPU 0 instructions: 50000001 cycles: 17640522 heartbeat IPC: 2.83379 cumulative IPC: 2.83438 (Simulation time: 0 hr 3 min 19 sec) 

Warmup complete CPU 0 instructions: 50000001 cycles: 17640522 (Simulation time: 0 hr 3 min 19 sec) 

Heartbeat CPU 0 instructions: 60000002 cycles: 24411422 heartbeat IPC: 1.47691 cumulative IPC: 1.47691 (Simulation time: 0 hr 4 min 1 sec) 
Heartbeat CPU 0 instructions: 70000000 cycles: 31289257 heartbeat IPC: 1.45395 cumulative IPC: 1.46534 (Simulation time: 0 hr 4 min 43 sec) 
Heartbeat CPU 0 instructions: 80000002 cycles: 38077626 heartbeat IPC: 1.47311 cumulative IPC: 1.46792 (Simulation time: 0 hr 5 min 25 sec) 
Heartbeat CPU 0 instructions: 90000001 cycles: 44544498 heartbeat IPC: 1.54634 cumulative IPC: 1.48677 (Simulation time: 0 hr 6 min 8 sec) 
Heartbeat CPU 0 instructions: 100000003 cycles: 50736025 heartbeat IPC: 1.61511 cumulative IPC: 1.51078 (Simulation time: 0 hr 6 min 51 sec) 
Finished CPU 0 instructions: 50000002 cycles: 33095503 cumulative IPC: 1.51078 (Simulation time: 0 hr 6 min 51 sec) 

ChampSim completed all CPUs

Region of Interest Statistics

CPU 0 cumulative IPC: 1.51078 instructions: 50000002 cycles: 33095503
L1D TOTAL     ACCESS:   19974105  HIT:   18548784  MISS:    1425321
L1D LOAD      ACCESS:    6956348  HIT:    6337052  MISS:     619296
L1D RFO       ACCESS:    6374784  HIT:    6126402  MISS:     248382
L1D PREFETCH  ACCESS:    6642973  HIT:    6085330  MISS:     557643
L1D WRITEBACK ACCESS:          0  HIT:          0  MISS:          0
L1D PREFETCH  REQUESTED:    6997107  ISSUED:    6823147  USEFUL:     130456  USELESS:     427181
L1D AVERAGE MISS LATENCY: 23.0703 cycles
L1I TOTAL     ACCESS:   30683613  HIT:   27667353  MISS:    3016260
L1I LOAD      ACCESS:    9494478  HIT:    9433941  MISS:      60537
L1I RFO       ACCESS:          0  HIT:          0  MISS:          0
L1I PREFETCH  ACCESS:   21189135  HIT:   18233412  MISS:    2955723
L1I WRITEBACK ACCESS:          0  HIT:          0  MISS:          0
L1I PREFETCH  REQUESTED:   27274023  ISSUED:   27274023  USEFUL:    2417556  USELESS:     538194
L1I AVERAGE MISS LATENCY: 18.8957 cycles
L2C TOTAL     ACCESS:    6084049  HIT:    5421657  MISS:     662392
L2C LOAD      ACCESS:     621798  HIT:     512437  MISS:     109361
L2C RFO       ACCESS:     246757  HIT:     167768  MISS:      78989
L2C PREFETCH  ACCESS:    4718763  HIT:    4249060  MISS:     469703
L2C WRITEBACK ACCESS:     496731  HIT:     492392  MISS:       4339
L2C PREFETCH  REQUESTED:    4779280  ISSUED:    4769291  USEFUL:      10518  USELESS:     458679
L2C AVERAGE MISS LATENCY: 38.5181 cycles
LLC TOTAL     ACCESS:    2078398  HIT:    2046834  MISS:      31564
LLC LOAD      ACCESS:     109243  HIT:     105979  MISS:       3264
LLC RFO       ACCESS:      78986  HIT:      68174  MISS:      10812
LLC PREFETCH  ACCESS:    1759781  HIT:    1742517  MISS:      17264
LLC WRITEBACK ACCESS:     130388  HIT:     130164  MISS:        224
LLC PREFETCH  REQUESTED:          0  ISSUED:          0  USEFUL:       1136  USELESS:      14376
LLC AVERAGE MISS LATENCY: 178.968 cycles
Major fault: 0 Minor fault: 2458
CPU 0 L1I EPI prefetcher final stats
CPU 0 L1D next line prefetcher final stats

DRAM Statistics
 CHANNEL 0
 RQ ROW_BUFFER_HIT:       9624  ROW_BUFFER_MISS:      21715
 DBUS_CONGESTED:      19493
 WQ ROW_BUFFER_HIT:       1528  ROW_BUFFER_MISS:      12305  FULL:          0

 AVG_CONGESTED_CYCLE: 6

CPU 0 Branch Prediction Accuracy: 99.8142% MPKI: 0.34676 Average ROB Occupancy at Mispredict: 203.097

Branch types
NOT_BRANCH: 40668929 81.3379%
BRANCH_DIRECT_JUMP: 531701 1.0634%
BRANCH_INDIRECT: 199025 0.39805%
BRANCH_CONDITIONAL: 6211501 12.423%
BRANCH_DIRECT_CALL: 1010912 2.02182%
BRANCH_INDIRECT_CALL: 183501 0.367002%
BRANCH_RETURN: 1194416 2.38883%
BRANCH_OTHER: 0 0%

