Initialize SIGNATURE TABLE
ST_SET: 1
ST_WAY: 256
ST_TAG_BIT: 16
ST_TAG_MASK: ffff

Initialize PATTERN TABLE
PT_SET: 512
PT_WAY: 4
SIG_DELTA_BIT: 7
C_SIG_BIT: 4
C_DELTA_BIT: 4

Initialize PREFETCH FILTER
FILTER_SET: 1024

*** ChampSim Multicore Out-of-Order Simulator ***

Warmup Instructions: 50000000
Simulation Instructions: 50000000
Number of CPUs: 1
LLC sets: 2048
LLC ways: 16
Off-chip DRAM Size: 4096 MB Channels: 1 Width: 64-bit Data Rate: 3200 MT/s

CPU 0 runs /home/tapatil/CSE240C/SA1/ChampSim-master/ipc1_public/server_009.champsimtrace.xz
CPU 0 EPI prefetcher
CPU 0 L1D next line prefetcher
Heartbeat CPU 0 instructions: 10000003 cycles: 3199793 heartbeat IPC: 3.1252 cumulative IPC: 3.1252 (Simulation time: 0 hr 0 min 38 sec) 
Heartbeat CPU 0 instructions: 20000001 cycles: 6392158 heartbeat IPC: 3.13247 cumulative IPC: 3.12883 (Simulation time: 0 hr 1 min 15 sec) 
Heartbeat CPU 0 instructions: 30000002 cycles: 9598891 heartbeat IPC: 3.11844 cumulative IPC: 3.12536 (Simulation time: 0 hr 1 min 53 sec) 
Heartbeat CPU 0 instructions: 40000003 cycles: 12802118 heartbeat IPC: 3.12185 cumulative IPC: 3.12448 (Simulation time: 0 hr 2 min 31 sec) 
Heartbeat CPU 0 instructions: 50000000 cycles: 16061947 heartbeat IPC: 3.06764 cumulative IPC: 3.11295 (Simulation time: 0 hr 3 min 9 sec) 

Warmup complete CPU 0 instructions: 50000004 cycles: 16061948 (Simulation time: 0 hr 3 min 9 sec) 

Heartbeat CPU 0 instructions: 60000002 cycles: 31813310 heartbeat IPC: 0.634866 cumulative IPC: 0.634866 (Simulation time: 0 hr 3 min 58 sec) 
Heartbeat CPU 0 instructions: 70000003 cycles: 52983757 heartbeat IPC: 0.472357 cumulative IPC: 0.541685 (Simulation time: 0 hr 4 min 59 sec) 
Heartbeat CPU 0 instructions: 80000000 cycles: 60148797 heartbeat IPC: 1.39567 cumulative IPC: 0.680475 (Simulation time: 0 hr 5 min 35 sec) 
Heartbeat CPU 0 instructions: 90000001 cycles: 67459616 heartbeat IPC: 1.36784 cumulative IPC: 0.778245 (Simulation time: 0 hr 6 min 11 sec) 
Heartbeat CPU 0 instructions: 100000003 cycles: 74630561 heartbeat IPC: 1.39452 cumulative IPC: 0.8537 (Simulation time: 0 hr 6 min 46 sec) 
Finished CPU 0 instructions: 50000003 cycles: 58568614 cumulative IPC: 0.8537 (Simulation time: 0 hr 6 min 46 sec) 

ChampSim completed all CPUs

Region of Interest Statistics

CPU 0 cumulative IPC: 0.8537 instructions: 50000003 cycles: 58568614
L1D TOTAL     ACCESS:   21648353  HIT:   17068817  MISS:    4579536
L1D LOAD      ACCESS:    8639285  HIT:    6359580  MISS:    2279705
L1D RFO       ACCESS:    4581852  HIT:    4477390  MISS:     104462
L1D PREFETCH  ACCESS:    8427216  HIT:    6231847  MISS:    2195369
L1D WRITEBACK ACCESS:          0  HIT:          0  MISS:          0
L1D PREFETCH  REQUESTED:    8671730  ISSUED:    8574099  USEFUL:     106864  USELESS:    2088504
L1D AVERAGE MISS LATENCY: 20.1864 cycles
L1I TOTAL     ACCESS:   34766098  HIT:   33372497  MISS:    1393601
L1I LOAD      ACCESS:   10752289  HIT:   10650341  MISS:     101948
L1I RFO       ACCESS:          0  HIT:          0  MISS:          0
L1I PREFETCH  ACCESS:   24013809  HIT:   22722156  MISS:    1291653
L1I WRITEBACK ACCESS:          0  HIT:          0  MISS:          0
L1I PREFETCH  REQUESTED:   31467538  ISSUED:   31467538  USEFUL:     981465  USELESS:     310230
L1I AVERAGE MISS LATENCY: 32.3797 cycles
L2C TOTAL     ACCESS:    7617728  HIT:    6599029  MISS:    1018699
L2C LOAD      ACCESS:    2328806  HIT:    2089138  MISS:     239668
L2C RFO       ACCESS:     103507  HIT:      64202  MISS:      39305
L2C PREFETCH  ACCESS:    4928556  HIT:    4189848  MISS:     738708
L2C WRITEBACK ACCESS:     256859  HIT:     255841  MISS:       1018
L2C PREFETCH  REQUESTED:    7076590  ISSUED:    7071953  USEFUL:      27805  USELESS:     709458
L2C AVERAGE MISS LATENCY: 46.723 cycles
LLC TOTAL     ACCESS:    2342024  HIT:    2211637  MISS:     130387
LLC LOAD      ACCESS:     238077  HIT:     217144  MISS:      20933
LLC RFO       ACCESS:      39300  HIT:      30592  MISS:       8708
LLC PREFETCH  ACCESS:    1930099  HIT:    1829608  MISS:     100491
LLC WRITEBACK ACCESS:     134548  HIT:     134293  MISS:        255
LLC PREFETCH  REQUESTED:          0  ISSUED:          0  USEFUL:      14609  USELESS:      84615
LLC AVERAGE MISS LATENCY: 169.814 cycles
Major fault: 0 Minor fault: 6358
CPU 0 L1I EPI prefetcher final stats
CPU 0 L1D next line prefetcher final stats

DRAM Statistics
 CHANNEL 0
 RQ ROW_BUFFER_HIT:      25370  ROW_BUFFER_MISS:     104750
 DBUS_CONGESTED:      58617
 WQ ROW_BUFFER_HIT:       8797  ROW_BUFFER_MISS:      37677  FULL:          0

 AVG_CONGESTED_CYCLE: 5

CPU 0 Branch Prediction Accuracy: 99.4713% MPKI: 1.11484 Average ROB Occupancy at Mispredict: 114.992

Branch types
NOT_BRANCH: 39456615 78.9132%
BRANCH_DIRECT_JUMP: 445350 0.8907%
BRANCH_INDIRECT: 131149 0.262298%
BRANCH_CONDITIONAL: 8130196 16.2604%
BRANCH_DIRECT_CALL: 732485 1.46497%
BRANCH_INDIRECT_CALL: 172369 0.344738%
BRANCH_RETURN: 931558 1.86312%
BRANCH_OTHER: 0 0%

