Initialize SIGNATURE TABLE
ST_SET: 1
ST_WAY: 256
ST_TAG_BIT: 16
ST_TAG_MASK: ffff

Initialize PATTERN TABLE
PT_SET: 512
PT_WAY: 4
SIG_DELTA_BIT: 7
C_SIG_BIT: 4
C_DELTA_BIT: 4

Initialize PREFETCH FILTER
FILTER_SET: 1024

*** ChampSim Multicore Out-of-Order Simulator ***

Warmup Instructions: 50000000
Simulation Instructions: 50000000
Number of CPUs: 1
LLC sets: 2048
LLC ways: 16
Off-chip DRAM Size: 4096 MB Channels: 1 Width: 64-bit Data Rate: 3200 MT/s

CPU 0 runs /home/tapatil/CSE240C/SA1/ChampSim-master/ipc1_public/server_003.champsimtrace.xz
CPU 0 EPI prefetcher
CPU 0 L1D next line prefetcher
Heartbeat CPU 0 instructions: 10000002 cycles: 3222673 heartbeat IPC: 3.10301 cumulative IPC: 3.10301 (Simulation time: 0 hr 0 min 38 sec) 
Heartbeat CPU 0 instructions: 20000000 cycles: 6540894 heartbeat IPC: 3.01366 cumulative IPC: 3.05769 (Simulation time: 0 hr 1 min 15 sec) 
Heartbeat CPU 0 instructions: 30000000 cycles: 9750069 heartbeat IPC: 3.11607 cumulative IPC: 3.0769 (Simulation time: 0 hr 1 min 53 sec) 
Heartbeat CPU 0 instructions: 40000001 cycles: 13165587 heartbeat IPC: 2.92781 cumulative IPC: 3.03822 (Simulation time: 0 hr 2 min 34 sec) 
Heartbeat CPU 0 instructions: 50000002 cycles: 16884201 heartbeat IPC: 2.68917 cumulative IPC: 2.96135 (Simulation time: 0 hr 3 min 15 sec) 

Warmup complete CPU 0 instructions: 50000002 cycles: 16884201 (Simulation time: 0 hr 3 min 15 sec) 

Heartbeat CPU 0 instructions: 60000000 cycles: 26159625 heartbeat IPC: 1.07812 cumulative IPC: 1.07812 (Simulation time: 0 hr 3 min 52 sec) 
Heartbeat CPU 0 instructions: 70000003 cycles: 35366414 heartbeat IPC: 1.08616 cumulative IPC: 1.08212 (Simulation time: 0 hr 4 min 27 sec) 
Heartbeat CPU 0 instructions: 80000000 cycles: 45670588 heartbeat IPC: 0.97048 cumulative IPC: 1.04216 (Simulation time: 0 hr 5 min 3 sec) 
Heartbeat CPU 0 instructions: 90000001 cycles: 55948878 heartbeat IPC: 0.972925 cumulative IPC: 1.02394 (Simulation time: 0 hr 5 min 39 sec) 
Heartbeat CPU 0 instructions: 100000003 cycles: 66995255 heartbeat IPC: 0.905274 cumulative IPC: 0.997784 (Simulation time: 0 hr 6 min 14 sec) 
Finished CPU 0 instructions: 50000001 cycles: 50111054 cumulative IPC: 0.997784 (Simulation time: 0 hr 6 min 14 sec) 

ChampSim completed all CPUs

Region of Interest Statistics

CPU 0 cumulative IPC: 0.997784 instructions: 50000001 cycles: 50111054
L1D TOTAL     ACCESS:   20020067  HIT:   18879177  MISS:    1140890
L1D LOAD      ACCESS:    7862048  HIT:    7332553  MISS:     529495
L1D RFO       ACCESS:    4555074  HIT:    4437740  MISS:     117334
L1D PREFETCH  ACCESS:    7602945  HIT:    7108884  MISS:     494061
L1D WRITEBACK ACCESS:          0  HIT:          0  MISS:          0
L1D PREFETCH  REQUESTED:    7921143  ISSUED:    7828920  USEFUL:     155800  USELESS:     338220
L1D AVERAGE MISS LATENCY: 53.4171 cycles
L1I TOTAL     ACCESS:   29972634  HIT:   28718291  MISS:    1254343
L1I LOAD      ACCESS:    9287700  HIT:    9122139  MISS:     165561
L1I RFO       ACCESS:          0  HIT:          0  MISS:          0
L1I PREFETCH  ACCESS:   20684934  HIT:   19596152  MISS:    1088782
L1I WRITEBACK ACCESS:          0  HIT:          0  MISS:          0
L1I PREFETCH  REQUESTED:   25483460  ISSUED:   25483460  USEFUL:     773725  USELESS:     315161
L1I AVERAGE MISS LATENCY: 34.9637 cycles
L2C TOTAL     ACCESS:    3230467  HIT:    2279185  MISS:     951282
L2C LOAD      ACCESS:     633370  HIT:     327947  MISS:     305423
L2C RFO       ACCESS:     114621  HIT:      40836  MISS:      73785
L2C PREFETCH  ACCESS:    2198215  HIT:    1627082  MISS:     571133
L2C WRITEBACK ACCESS:     284261  HIT:     283320  MISS:        941
L2C PREFETCH  REQUESTED:    2593398  ISSUED:    2590713  USEFUL:      34798  USELESS:     534366
L2C AVERAGE MISS LATENCY: 75.6125 cycles
LLC TOTAL     ACCESS:    1849198  HIT:    1494709  MISS:     354489
LLC LOAD      ACCESS:     303149  HIT:     223296  MISS:      79853
LLC RFO       ACCESS:      73781  HIT:      32082  MISS:      41699
LLC PREFETCH  ACCESS:    1308148  HIT:    1076695  MISS:     231453
LLC WRITEBACK ACCESS:     164120  HIT:     162636  MISS:       1484
LLC PREFETCH  REQUESTED:          0  ISSUED:          0  USEFUL:      47242  USELESS:     175037
LLC AVERAGE MISS LATENCY: 179.555 cycles
Major fault: 0 Minor fault: 7774
CPU 0 L1I EPI prefetcher final stats
CPU 0 L1D next line prefetcher final stats

DRAM Statistics
 CHANNEL 0
 RQ ROW_BUFFER_HIT:      77153  ROW_BUFFER_MISS:     275814
 DBUS_CONGESTED:     176656
 WQ ROW_BUFFER_HIT:      24684  ROW_BUFFER_MISS:      77879  FULL:          0

 AVG_CONGESTED_CYCLE: 5

CPU 0 Branch Prediction Accuracy: 95.439% MPKI: 9.02702 Average ROB Occupancy at Mispredict: 65.9922

Branch types
NOT_BRANCH: 40104067 80.2081%
BRANCH_DIRECT_JUMP: 497928 0.995856%
BRANCH_INDIRECT: 130587 0.261174%
BRANCH_CONDITIONAL: 7219014 14.438%
BRANCH_DIRECT_CALL: 625807 1.25161%
BRANCH_INDIRECT_CALL: 389787 0.779574%
BRANCH_RETURN: 1032747 2.06549%
BRANCH_OTHER: 0 0%

