Initialize SIGNATURE TABLE
ST_SET: 1
ST_WAY: 256
ST_TAG_BIT: 16
ST_TAG_MASK: ffff

Initialize PATTERN TABLE
PT_SET: 512
PT_WAY: 4
SIG_DELTA_BIT: 7
C_SIG_BIT: 4
C_DELTA_BIT: 4

Initialize PREFETCH FILTER
FILTER_SET: 1024

*** ChampSim Multicore Out-of-Order Simulator ***

Warmup Instructions: 50000000
Simulation Instructions: 50000000
Number of CPUs: 1
LLC sets: 2048
LLC ways: 16
Off-chip DRAM Size: 4096 MB Channels: 1 Width: 64-bit Data Rate: 3200 MT/s

CPU 0 runs /home/tapatil/CSE240C/SA1/ChampSim-master/ipc1_public/server_013.champsimtrace.xz
CPU 0 EPI prefetcher
CPU 0 L1D next line prefetcher
Heartbeat CPU 0 instructions: 10000000 cycles: 3214718 heartbeat IPC: 3.11069 cumulative IPC: 3.11069 (Simulation time: 0 hr 0 min 38 sec) 
Heartbeat CPU 0 instructions: 20000001 cycles: 6418592 heartbeat IPC: 3.12122 cumulative IPC: 3.11595 (Simulation time: 0 hr 1 min 14 sec) 
Heartbeat CPU 0 instructions: 30000002 cycles: 9626563 heartbeat IPC: 3.11724 cumulative IPC: 3.11638 (Simulation time: 0 hr 1 min 51 sec) 
Heartbeat CPU 0 instructions: 40000002 cycles: 12829556 heartbeat IPC: 3.12208 cumulative IPC: 3.1178 (Simulation time: 0 hr 2 min 27 sec) 
Heartbeat CPU 0 instructions: 50000000 cycles: 16032962 heartbeat IPC: 3.12168 cumulative IPC: 3.11858 (Simulation time: 0 hr 3 min 4 sec) 

Warmup complete CPU 0 instructions: 50000004 cycles: 16032963 (Simulation time: 0 hr 3 min 4 sec) 

Heartbeat CPU 0 instructions: 60000002 cycles: 23728055 heartbeat IPC: 1.29953 cumulative IPC: 1.29953 (Simulation time: 0 hr 3 min 40 sec) 
Heartbeat CPU 0 instructions: 70000002 cycles: 31590677 heartbeat IPC: 1.27184 cumulative IPC: 1.28554 (Simulation time: 0 hr 4 min 15 sec) 
Heartbeat CPU 0 instructions: 80000003 cycles: 38876751 heartbeat IPC: 1.37248 cumulative IPC: 1.31327 (Simulation time: 0 hr 4 min 50 sec) 
Heartbeat CPU 0 instructions: 90000003 cycles: 46360576 heartbeat IPC: 1.33622 cumulative IPC: 1.31893 (Simulation time: 0 hr 5 min 25 sec) 
Heartbeat CPU 0 instructions: 100000003 cycles: 53818526 heartbeat IPC: 1.34085 cumulative IPC: 1.32326 (Simulation time: 0 hr 6 min 1 sec) 
Finished CPU 0 instructions: 50000003 cycles: 37785564 cumulative IPC: 1.32326 (Simulation time: 0 hr 6 min 1 sec) 

ChampSim completed all CPUs

Region of Interest Statistics

CPU 0 cumulative IPC: 1.32326 instructions: 50000003 cycles: 37785564
L1D TOTAL     ACCESS:   17364681  HIT:   16298243  MISS:    1066438
L1D LOAD      ACCESS:    6335971  HIT:    5835559  MISS:     500412
L1D RFO       ACCESS:    4931113  HIT:    4851040  MISS:      80073
L1D PREFETCH  ACCESS:    6097597  HIT:    5611644  MISS:     485953
L1D WRITEBACK ACCESS:          0  HIT:          0  MISS:          0
L1D PREFETCH  REQUESTED:    6370413  ISSUED:    6275270  USEFUL:     134326  USELESS:     351632
L1D AVERAGE MISS LATENCY: 41.7289 cycles
L1I TOTAL     ACCESS:   28179276  HIT:   26295321  MISS:    1883955
L1I LOAD      ACCESS:    8689787  HIT:    8551447  MISS:     138340
L1I RFO       ACCESS:          0  HIT:          0  MISS:          0
L1I PREFETCH  ACCESS:   19489489  HIT:   17743874  MISS:    1745615
L1I WRITEBACK ACCESS:          0  HIT:          0  MISS:          0
L1I PREFETCH  REQUESTED:   23411712  ISSUED:   23411712  USEFUL:    1307777  USELESS:     437812
L1I AVERAGE MISS LATENCY: 32.4684 cycles
L2C TOTAL     ACCESS:    3767276  HIT:    2417671  MISS:    1349605
L2C LOAD      ACCESS:     570259  HIT:     254012  MISS:     316247
L2C RFO       ACCESS:      78808  HIT:      30778  MISS:      48030
L2C PREFETCH  ACCESS:    2842419  HIT:    1859130  MISS:     983289
L2C WRITEBACK ACCESS:     275790  HIT:     273751  MISS:       2039
L2C PREFETCH  REQUESTED:    3579537  ISSUED:    3574502  USEFUL:      33774  USELESS:     949016
L2C AVERAGE MISS LATENCY: 46.5419 cycles
LLC TOTAL     ACCESS:    2538247  HIT:    2372331  MISS:     165916
LLC LOAD      ACCESS:     314894  HIT:     289603  MISS:      25291
LLC RFO       ACCESS:      48019  HIT:      38123  MISS:       9896
LLC PREFETCH  ACCESS:    2002086  HIT:    1871659  MISS:     130427
LLC WRITEBACK ACCESS:     173248  HIT:     172946  MISS:        302
LLC PREFETCH  REQUESTED:          0  ISSUED:          0  USEFUL:      15868  USELESS:     113731
LLC AVERAGE MISS LATENCY: 171.947 cycles
Major fault: 0 Minor fault: 6207
CPU 0 L1I EPI prefetcher final stats
CPU 0 L1D next line prefetcher final stats

DRAM Statistics
 CHANNEL 0
 RQ ROW_BUFFER_HIT:      27384  ROW_BUFFER_MISS:     138221
 DBUS_CONGESTED:      74592
 WQ ROW_BUFFER_HIT:      11919  ROW_BUFFER_MISS:      51197  FULL:          0

 AVG_CONGESTED_CYCLE: 5

CPU 0 Branch Prediction Accuracy: 99.4114% MPKI: 1.0933 Average ROB Occupancy at Mispredict: 118.799

Branch types
NOT_BRANCH: 40713282 81.4266%
BRANCH_DIRECT_JUMP: 463701 0.927402%
BRANCH_INDIRECT: 146544 0.293088%
BRANCH_CONDITIONAL: 6981957 13.9639%
BRANCH_DIRECT_CALL: 665005 1.33001%
BRANCH_INDIRECT_CALL: 165152 0.330304%
BRANCH_RETURN: 864314 1.72863%
BRANCH_OTHER: 0 0%

