Initialize SIGNATURE TABLE
ST_SET: 1
ST_WAY: 256
ST_TAG_BIT: 16
ST_TAG_MASK: ffff

Initialize PATTERN TABLE
PT_SET: 512
PT_WAY: 4
SIG_DELTA_BIT: 7
C_SIG_BIT: 4
C_DELTA_BIT: 4

Initialize PREFETCH FILTER
FILTER_SET: 1024

*** ChampSim Multicore Out-of-Order Simulator ***

Warmup Instructions: 50000000
Simulation Instructions: 50000000
Number of CPUs: 1
LLC sets: 2048
LLC ways: 16
Off-chip DRAM Size: 4096 MB Channels: 1 Width: 64-bit Data Rate: 3200 MT/s

CPU 0 runs /home/tapatil/CSE240C/SA1/ChampSim-master/ipc1_public/server_024.champsimtrace.xz
CPU 0 EPI prefetcher
CPU 0 L1D next line prefetcher
Heartbeat CPU 0 instructions: 10000000 cycles: 3498621 heartbeat IPC: 2.85827 cumulative IPC: 2.85827 (Simulation time: 0 hr 0 min 40 sec) 
Heartbeat CPU 0 instructions: 20000002 cycles: 6989891 heartbeat IPC: 2.86429 cumulative IPC: 2.86128 (Simulation time: 0 hr 1 min 19 sec) 
Heartbeat CPU 0 instructions: 30000000 cycles: 10491329 heartbeat IPC: 2.85597 cumulative IPC: 2.8595 (Simulation time: 0 hr 1 min 58 sec) 
Heartbeat CPU 0 instructions: 40000000 cycles: 13990705 heartbeat IPC: 2.85765 cumulative IPC: 2.85904 (Simulation time: 0 hr 2 min 37 sec) 
Heartbeat CPU 0 instructions: 50000001 cycles: 17479872 heartbeat IPC: 2.86601 cumulative IPC: 2.86043 (Simulation time: 0 hr 3 min 15 sec) 

Warmup complete CPU 0 instructions: 50000001 cycles: 17479872 (Simulation time: 0 hr 3 min 15 sec) 

Heartbeat CPU 0 instructions: 60000003 cycles: 24239353 heartbeat IPC: 1.4794 cumulative IPC: 1.4794 (Simulation time: 0 hr 3 min 56 sec) 
Heartbeat CPU 0 instructions: 70000000 cycles: 31031372 heartbeat IPC: 1.47232 cumulative IPC: 1.47585 (Simulation time: 0 hr 4 min 36 sec) 
*** Reached end of trace for Core: 0 Repeating trace: /home/tapatil/CSE240C/SA1/ChampSim-master/ipc1_public/server_024.champsimtrace.xz
Heartbeat CPU 0 instructions: 80000003 cycles: 37794916 heartbeat IPC: 1.47852 cumulative IPC: 1.47674 (Simulation time: 0 hr 5 min 16 sec) 
Heartbeat CPU 0 instructions: 90000003 cycles: 44602742 heartbeat IPC: 1.4689 cumulative IPC: 1.47477 (Simulation time: 0 hr 5 min 56 sec) 
Heartbeat CPU 0 instructions: 100000002 cycles: 51370471 heartbeat IPC: 1.4776 cumulative IPC: 1.47534 (Simulation time: 0 hr 6 min 36 sec) 
Finished CPU 0 instructions: 50000001 cycles: 33890599 cumulative IPC: 1.47534 (Simulation time: 0 hr 6 min 36 sec) 

ChampSim completed all CPUs

Region of Interest Statistics

CPU 0 cumulative IPC: 1.47534 instructions: 50000001 cycles: 33890599
L1D TOTAL     ACCESS:   19658315  HIT:   18140828  MISS:    1517487
L1D LOAD      ACCESS:    6919563  HIT:    6238728  MISS:     680835
L1D RFO       ACCESS:    6149359  HIT:    5875705  MISS:     273654
L1D PREFETCH  ACCESS:    6589393  HIT:    6026395  MISS:     562998
L1D WRITEBACK ACCESS:          0  HIT:          0  MISS:          0
L1D PREFETCH  REQUESTED:    6973832  ISSUED:    6852022  USEFUL:     135610  USELESS:     427392
L1D AVERAGE MISS LATENCY: 25.2053 cycles
L1I TOTAL     ACCESS:   27920821  HIT:   24848973  MISS:    3071848
L1I LOAD      ACCESS:    9312008  HIT:    9252191  MISS:      59817
L1I RFO       ACCESS:          0  HIT:          0  MISS:          0
L1I PREFETCH  ACCESS:   18608813  HIT:   15596782  MISS:    3012031
L1I WRITEBACK ACCESS:          0  HIT:          0  MISS:          0
L1I PREFETCH  REQUESTED:   23214517  ISSUED:   23214517  USEFUL:    2494519  USELESS:     517489
L1I AVERAGE MISS LATENCY: 18.9676 cycles
L2C TOTAL     ACCESS:    6355874  HIT:    5638563  MISS:     717311
L2C LOAD      ACCESS:     648999  HIT:     523207  MISS:     125792
L2C RFO       ACCESS:     272202  HIT:     184882  MISS:      87320
L2C PREFETCH  ACCESS:    4914482  HIT:    4413473  MISS:     501009
L2C WRITEBACK ACCESS:     520191  HIT:     517001  MISS:       3190
L2C PREFETCH  REQUESTED:    5490679  ISSUED:    5481238  USEFUL:      15178  USELESS:     485116
L2C AVERAGE MISS LATENCY: 43.6985 cycles
LLC TOTAL     ACCESS:    2245211  HIT:    2190439  MISS:      54772
LLC LOAD      ACCESS:     125506  HIT:     119936  MISS:       5570
LLC RFO       ACCESS:      87303  HIT:      65197  MISS:      22106
LLC PREFETCH  ACCESS:    1891851  HIT:    1865053  MISS:      26798
LLC WRITEBACK ACCESS:     140551  HIT:     140253  MISS:        298
LLC PREFETCH  REQUESTED:          0  ISSUED:          0  USEFUL:       2224  USELESS:      24517
LLC AVERAGE MISS LATENCY: 194.727 cycles
Major fault: 0 Minor fault: 2365
CPU 0 L1I EPI prefetcher final stats
CPU 0 L1D next line prefetcher final stats

DRAM Statistics
 CHANNEL 0
 RQ ROW_BUFFER_HIT:      18256  ROW_BUFFER_MISS:      36207
 DBUS_CONGESTED:      38037
 WQ ROW_BUFFER_HIT:       2734  ROW_BUFFER_MISS:      22828  FULL:          0

 AVG_CONGESTED_CYCLE: 6

CPU 0 Branch Prediction Accuracy: 99.7477% MPKI: 0.46156 Average ROB Occupancy at Mispredict: 175.405

Branch types
NOT_BRANCH: 40853719 81.7074%
BRANCH_DIRECT_JUMP: 566822 1.13364%
BRANCH_INDIRECT: 197171 0.394342%
BRANCH_CONDITIONAL: 6308431 12.6169%
BRANCH_DIRECT_CALL: 876400 1.7528%
BRANCH_INDIRECT_CALL: 160491 0.320982%
BRANCH_RETURN: 1036885 2.07377%
BRANCH_OTHER: 0 0%

