Initialize SIGNATURE TABLE
ST_SET: 1
ST_WAY: 256
ST_TAG_BIT: 16
ST_TAG_MASK: ffff

Initialize PATTERN TABLE
PT_SET: 512
PT_WAY: 4
SIG_DELTA_BIT: 7
C_SIG_BIT: 4
C_DELTA_BIT: 4

Initialize PREFETCH FILTER
FILTER_SET: 1024

*** ChampSim Multicore Out-of-Order Simulator ***

Warmup Instructions: 50000000
Simulation Instructions: 50000000
Number of CPUs: 1
LLC sets: 2048
LLC ways: 16
Off-chip DRAM Size: 4096 MB Channels: 1 Width: 64-bit Data Rate: 3200 MT/s

CPU 0 runs /home/tapatil/CSE240C/SA1/ChampSim-master/ipc1_public/server_026.champsimtrace.xz
CPU 0 EPI prefetcher
CPU 0 L1D next line prefetcher
Heartbeat CPU 0 instructions: 10000000 cycles: 3523875 heartbeat IPC: 2.83779 cumulative IPC: 2.83779 (Simulation time: 0 hr 0 min 41 sec) 
Heartbeat CPU 0 instructions: 20000002 cycles: 7052866 heartbeat IPC: 2.83367 cumulative IPC: 2.83573 (Simulation time: 0 hr 1 min 21 sec) 
Heartbeat CPU 0 instructions: 30000000 cycles: 10572380 heartbeat IPC: 2.8413 cumulative IPC: 2.83758 (Simulation time: 0 hr 2 min 1 sec) 
Heartbeat CPU 0 instructions: 40000003 cycles: 14100465 heartbeat IPC: 2.8344 cumulative IPC: 2.83679 (Simulation time: 0 hr 2 min 41 sec) 
Heartbeat CPU 0 instructions: 50000000 cycles: 17621296 heartbeat IPC: 2.84024 cumulative IPC: 2.83748 (Simulation time: 0 hr 3 min 20 sec) 

Warmup complete CPU 0 instructions: 50000004 cycles: 17621297 (Simulation time: 0 hr 3 min 20 sec) 

*** Reached end of trace for Core: 0 Repeating trace: /home/tapatil/CSE240C/SA1/ChampSim-master/ipc1_public/server_026.champsimtrace.xz
Heartbeat CPU 0 instructions: 60000000 cycles: 24549573 heartbeat IPC: 1.44336 cumulative IPC: 1.44336 (Simulation time: 0 hr 4 min 3 sec) 
Heartbeat CPU 0 instructions: 70000003 cycles: 31359855 heartbeat IPC: 1.46837 cumulative IPC: 1.45576 (Simulation time: 0 hr 4 min 45 sec) 
Heartbeat CPU 0 instructions: 80000002 cycles: 38267572 heartbeat IPC: 1.44766 cumulative IPC: 1.45305 (Simulation time: 0 hr 5 min 27 sec) 
Heartbeat CPU 0 instructions: 90000002 cycles: 45084232 heartbeat IPC: 1.46699 cumulative IPC: 1.45651 (Simulation time: 0 hr 6 min 9 sec) 
Heartbeat CPU 0 instructions: 100000000 cycles: 51988748 heartbeat IPC: 1.44833 cumulative IPC: 1.45486 (Simulation time: 0 hr 6 min 52 sec) 
Finished CPU 0 instructions: 50000000 cycles: 34367452 cumulative IPC: 1.45486 (Simulation time: 0 hr 6 min 52 sec) 

ChampSim completed all CPUs

Region of Interest Statistics

CPU 0 cumulative IPC: 1.45486 instructions: 50000000 cycles: 34367452
L1D TOTAL     ACCESS:   19770664  HIT:   18125553  MISS:    1645111
L1D LOAD      ACCESS:    6931883  HIT:    6202141  MISS:     729742
L1D RFO       ACCESS:    6244102  HIT:    5957271  MISS:     286831
L1D PREFETCH  ACCESS:    6594679  HIT:    5966141  MISS:     628538
L1D WRITEBACK ACCESS:          0  HIT:          0  MISS:          0
L1D PREFETCH  REQUESTED:    6979226  ISSUED:    6836635  USEFUL:     150747  USELESS:     477802
L1D AVERAGE MISS LATENCY: 24.0802 cycles
L1I TOTAL     ACCESS:   28101061  HIT:   24677707  MISS:    3423354
L1I LOAD      ACCESS:    9488702  HIT:    9419690  MISS:      69012
L1I RFO       ACCESS:          0  HIT:          0  MISS:          0
L1I PREFETCH  ACCESS:   18612359  HIT:   15258017  MISS:    3354342
L1I WRITEBACK ACCESS:          0  HIT:          0  MISS:          0
L1I PREFETCH  REQUESTED:   23429011  ISSUED:   23429011  USEFUL:    2731632  USELESS:     622786
L1I AVERAGE MISS LATENCY: 18.8107 cycles
L2C TOTAL     ACCESS:    7007957  HIT:    6220201  MISS:     787756
L2C LOAD      ACCESS:     718766  HIT:     571842  MISS:     146924
L2C RFO       ACCESS:     284662  HIT:     188288  MISS:      96374
L2C PREFETCH  ACCESS:    5443376  HIT:    4902940  MISS:     540436
L2C WRITEBACK ACCESS:     561153  HIT:     557131  MISS:       4022
L2C PREFETCH  REQUESTED:    6161977  ISSUED:    6146963  USEFUL:      15724  USELESS:     524055
L2C AVERAGE MISS LATENCY: 39.0464 cycles
LLC TOTAL     ACCESS:    2581789  HIT:    2543403  MISS:      38386
LLC LOAD      ACCESS:     146698  HIT:     143033  MISS:       3665
LLC RFO       ACCESS:      96360  HIT:      81670  MISS:      14690
LLC PREFETCH  ACCESS:    2174864  HIT:    2155042  MISS:      19822
LLC WRITEBACK ACCESS:     163867  HIT:     163658  MISS:        209
LLC PREFETCH  REQUESTED:          0  ISSUED:          0  USEFUL:       1150  USELESS:      18373
LLC AVERAGE MISS LATENCY: 187.276 cycles
Major fault: 0 Minor fault: 2168
CPU 0 L1I EPI prefetcher final stats
CPU 0 L1D next line prefetcher final stats

DRAM Statistics
 CHANNEL 0
 RQ ROW_BUFFER_HIT:      13256  ROW_BUFFER_MISS:      24918
 DBUS_CONGESTED:      24637
 WQ ROW_BUFFER_HIT:       1567  ROW_BUFFER_MISS:      14777  FULL:          0

 AVG_CONGESTED_CYCLE: 6

CPU 0 Branch Prediction Accuracy: 99.822% MPKI: 0.32584 Average ROB Occupancy at Mispredict: 206.352

Branch types
NOT_BRANCH: 40848567 81.6971%
BRANCH_DIRECT_JUMP: 522045 1.04409%
BRANCH_INDIRECT: 204034 0.408068%
BRANCH_CONDITIONAL: 6212961 12.4259%
BRANCH_DIRECT_CALL: 932392 1.86478%
BRANCH_INDIRECT_CALL: 173764 0.347528%
BRANCH_RETURN: 1106152 2.2123%
BRANCH_OTHER: 0 0%

