Initialize SIGNATURE TABLE
ST_SET: 1
ST_WAY: 256
ST_TAG_BIT: 16
ST_TAG_MASK: ffff

Initialize PATTERN TABLE
PT_SET: 512
PT_WAY: 4
SIG_DELTA_BIT: 7
C_SIG_BIT: 4
C_DELTA_BIT: 4

Initialize PREFETCH FILTER
FILTER_SET: 1024

*** ChampSim Multicore Out-of-Order Simulator ***

Warmup Instructions: 50000000
Simulation Instructions: 50000000
Number of CPUs: 1
LLC sets: 2048
LLC ways: 16
Off-chip DRAM Size: 4096 MB Channels: 1 Width: 64-bit Data Rate: 3200 MT/s

CPU 0 runs /home/tapatil/CSE240C/SA1/ChampSim-master/ipc1_public/server_012.champsimtrace.xz
CPU 0 EPI prefetcher
CPU 0 L1D next line prefetcher
Heartbeat CPU 0 instructions: 10000002 cycles: 3196388 heartbeat IPC: 3.12853 cumulative IPC: 3.12853 (Simulation time: 0 hr 0 min 37 sec) 
Heartbeat CPU 0 instructions: 20000002 cycles: 6395480 heartbeat IPC: 3.12589 cumulative IPC: 3.12721 (Simulation time: 0 hr 1 min 15 sec) 
Heartbeat CPU 0 instructions: 30000001 cycles: 9595457 heartbeat IPC: 3.12502 cumulative IPC: 3.12648 (Simulation time: 0 hr 1 min 52 sec) 
Heartbeat CPU 0 instructions: 40000000 cycles: 12800912 heartbeat IPC: 3.11968 cumulative IPC: 3.12478 (Simulation time: 0 hr 2 min 30 sec) 
Heartbeat CPU 0 instructions: 50000003 cycles: 16000167 heartbeat IPC: 3.12573 cumulative IPC: 3.12497 (Simulation time: 0 hr 3 min 9 sec) 

Warmup complete CPU 0 instructions: 50000003 cycles: 16000167 (Simulation time: 0 hr 3 min 9 sec) 

Heartbeat CPU 0 instructions: 60000002 cycles: 23176020 heartbeat IPC: 1.39356 cumulative IPC: 1.39356 (Simulation time: 0 hr 3 min 44 sec) 
Heartbeat CPU 0 instructions: 70000000 cycles: 30389387 heartbeat IPC: 1.38631 cumulative IPC: 1.38993 (Simulation time: 0 hr 4 min 19 sec) 
Heartbeat CPU 0 instructions: 80000003 cycles: 37535702 heartbeat IPC: 1.39932 cumulative IPC: 1.39305 (Simulation time: 0 hr 4 min 55 sec) 
Heartbeat CPU 0 instructions: 90000001 cycles: 45002427 heartbeat IPC: 1.33928 cumulative IPC: 1.3792 (Simulation time: 0 hr 5 min 30 sec) 
Heartbeat CPU 0 instructions: 100000002 cycles: 52307382 heartbeat IPC: 1.36893 cumulative IPC: 1.37714 (Simulation time: 0 hr 6 min 5 sec) 
Finished CPU 0 instructions: 50000001 cycles: 36307216 cumulative IPC: 1.37714 (Simulation time: 0 hr 6 min 5 sec) 

ChampSim completed all CPUs

Region of Interest Statistics

CPU 0 cumulative IPC: 1.37714 instructions: 50000001 cycles: 36307216
L1D TOTAL     ACCESS:   17348528  HIT:   16305697  MISS:    1042831
L1D LOAD      ACCESS:    6313347  HIT:    5826123  MISS:     487224
L1D RFO       ACCESS:    4963463  HIT:    4881688  MISS:      81775
L1D PREFETCH  ACCESS:    6071718  HIT:    5597886  MISS:     473832
L1D WRITEBACK ACCESS:          0  HIT:          0  MISS:          0
L1D PREFETCH  REQUESTED:    6347016  ISSUED:    6247168  USEFUL:     133234  USELESS:     340619
L1D AVERAGE MISS LATENCY: 40.0307 cycles
L1I TOTAL     ACCESS:   29123859  HIT:   27332425  MISS:    1791434
L1I LOAD      ACCESS:    8716220  HIT:    8608038  MISS:     108182
L1I RFO       ACCESS:          0  HIT:          0  MISS:          0
L1I PREFETCH  ACCESS:   20407639  HIT:   18724387  MISS:    1683252
L1I WRITEBACK ACCESS:          0  HIT:          0  MISS:          0
L1I PREFETCH  REQUESTED:   24410381  ISSUED:   24410381  USEFUL:    1277057  USELESS:     406157
L1I AVERAGE MISS LATENCY: 31.8877 cycles
L2C TOTAL     ACCESS:    3634546  HIT:    2382199  MISS:    1252347
L2C LOAD      ACCESS:     534665  HIT:     254983  MISS:     279682
L2C RFO       ACCESS:      80609  HIT:      31550  MISS:      49059
L2C PREFETCH  ACCESS:    2743793  HIT:    1821743  MISS:     922050
L2C WRITEBACK ACCESS:     275479  HIT:     273923  MISS:       1556
L2C PREFETCH  REQUESTED:    3424735  ISSUED:    3419299  USEFUL:      31830  USELESS:     889913
L2C AVERAGE MISS LATENCY: 46.1307 cycles
LLC TOTAL     ACCESS:    2391882  HIT:    2244758  MISS:     147124
LLC LOAD      ACCESS:     278563  HIT:     258052  MISS:      20511
LLC RFO       ACCESS:      49053  HIT:      38711  MISS:      10342
LLC PREFETCH  ACCESS:    1899523  HIT:    1783622  MISS:     115901
LLC WRITEBACK ACCESS:     164743  HIT:     164373  MISS:        370
LLC PREFETCH  REQUESTED:          0  ISSUED:          0  USEFUL:      12791  USELESS:     102783
LLC AVERAGE MISS LATENCY: 170.845 cycles
Major fault: 0 Minor fault: 5603
CPU 0 L1I EPI prefetcher final stats
CPU 0 L1D next line prefetcher final stats

DRAM Statistics
 CHANNEL 0
 RQ ROW_BUFFER_HIT:      22626  ROW_BUFFER_MISS:     124117
 DBUS_CONGESTED:      67868
 WQ ROW_BUFFER_HIT:      11126  ROW_BUFFER_MISS:      48789  FULL:          0

 AVG_CONGESTED_CYCLE: 5

CPU 0 Branch Prediction Accuracy: 99.4607% MPKI: 1.00288 Average ROB Occupancy at Mispredict: 121.737

Branch types
NOT_BRANCH: 40701152 81.4023%
BRANCH_DIRECT_JUMP: 469810 0.93962%
BRANCH_INDIRECT: 153732 0.307464%
BRANCH_CONDITIONAL: 6944088 13.8882%
BRANCH_DIRECT_CALL: 679880 1.35976%
BRANCH_INDIRECT_CALL: 168745 0.33749%
BRANCH_RETURN: 882493 1.76499%
BRANCH_OTHER: 0 0%

