Initialize SIGNATURE TABLE
ST_SET: 1
ST_WAY: 256
ST_TAG_BIT: 16
ST_TAG_MASK: ffff

Initialize PATTERN TABLE
PT_SET: 512
PT_WAY: 4
SIG_DELTA_BIT: 7
C_SIG_BIT: 4
C_DELTA_BIT: 4

Initialize PREFETCH FILTER
FILTER_SET: 1024

*** ChampSim Multicore Out-of-Order Simulator ***

Warmup Instructions: 50000000
Simulation Instructions: 50000000
Number of CPUs: 1
LLC sets: 2048
LLC ways: 16
Off-chip DRAM Size: 4096 MB Channels: 1 Width: 64-bit Data Rate: 3200 MT/s

CPU 0 runs /home/tapatil/CSE240C/SA1/ChampSim-master/ipc1_public/server_009.champsimtrace.xz
CPU 0 EPI prefetcher
CPU 0 L1D next line prefetcher
Heartbeat CPU 0 instructions: 10000003 cycles: 3199742 heartbeat IPC: 3.12525 cumulative IPC: 3.12525 (Simulation time: 0 hr 0 min 37 sec) 
Heartbeat CPU 0 instructions: 20000001 cycles: 6392376 heartbeat IPC: 3.13221 cumulative IPC: 3.12873 (Simulation time: 0 hr 1 min 15 sec) 
Heartbeat CPU 0 instructions: 30000002 cycles: 9599545 heartbeat IPC: 3.11802 cumulative IPC: 3.12515 (Simulation time: 0 hr 1 min 53 sec) 
Heartbeat CPU 0 instructions: 40000003 cycles: 12803227 heartbeat IPC: 3.12141 cumulative IPC: 3.12421 (Simulation time: 0 hr 2 min 32 sec) 
Heartbeat CPU 0 instructions: 50000000 cycles: 16063158 heartbeat IPC: 3.06755 cumulative IPC: 3.11271 (Simulation time: 0 hr 3 min 12 sec) 

Warmup complete CPU 0 instructions: 50000004 cycles: 16063159 (Simulation time: 0 hr 3 min 12 sec) 

Heartbeat CPU 0 instructions: 60000002 cycles: 31595170 heartbeat IPC: 0.643832 cumulative IPC: 0.643831 (Simulation time: 0 hr 4 min 4 sec) 
Heartbeat CPU 0 instructions: 70000003 cycles: 52543275 heartbeat IPC: 0.47737 cumulative IPC: 0.548244 (Simulation time: 0 hr 5 min 7 sec) 
Heartbeat CPU 0 instructions: 80000000 cycles: 59532900 heartbeat IPC: 1.43069 cumulative IPC: 0.690135 (Simulation time: 0 hr 5 min 44 sec) 
Heartbeat CPU 0 instructions: 90000001 cycles: 66681293 heartbeat IPC: 1.39892 cumulative IPC: 0.790231 (Simulation time: 0 hr 6 min 21 sec) 
Heartbeat CPU 0 instructions: 100000003 cycles: 73702581 heartbeat IPC: 1.42424 cumulative IPC: 0.867462 (Simulation time: 0 hr 6 min 59 sec) 
Finished CPU 0 instructions: 50000003 cycles: 57639423 cumulative IPC: 0.867462 (Simulation time: 0 hr 6 min 59 sec) 

ChampSim completed all CPUs

Region of Interest Statistics

CPU 0 cumulative IPC: 0.867462 instructions: 50000003 cycles: 57639423
L1D TOTAL     ACCESS:   21578430  HIT:   16998950  MISS:    4579480
L1D LOAD      ACCESS:    8606020  HIT:    6325436  MISS:    2280584
L1D RFO       ACCESS:    4579114  HIT:    4474706  MISS:     104408
L1D PREFETCH  ACCESS:    8393296  HIT:    6198808  MISS:    2194488
L1D WRITEBACK ACCESS:          0  HIT:          0  MISS:          0
L1D PREFETCH  REQUESTED:    8638249  ISSUED:    8541411  USEFUL:     106017  USELESS:    2088469
L1D AVERAGE MISS LATENCY: 20.2862 cycles
L1I TOTAL     ACCESS:   40721893  HIT:   39271673  MISS:    1450220
L1I LOAD      ACCESS:   10772640  HIT:   10729731  MISS:      42909
L1I RFO       ACCESS:          0  HIT:          0  MISS:          0
L1I PREFETCH  ACCESS:   29949253  HIT:   28541942  MISS:    1407311
L1I WRITEBACK ACCESS:          0  HIT:          0  MISS:          0
L1I PREFETCH  REQUESTED:   41862748  ISSUED:   41862748  USEFUL:    1051363  USELESS:     355998
L1I AVERAGE MISS LATENCY: 33.6277 cycles
L2C TOTAL     ACCESS:    7632719  HIT:    6591488  MISS:    1041231
L2C LOAD      ACCESS:    2282175  HIT:    2074412  MISS:     207763
L2C RFO       ACCESS:     103487  HIT:      63916  MISS:      39571
L2C PREFETCH  ACCESS:    4990187  HIT:    4197429  MISS:     792758
L2C WRITEBACK ACCESS:     256870  HIT:     255731  MISS:       1139
L2C PREFETCH  REQUESTED:    7347240  ISSUED:    7341948  USEFUL:      20336  USELESS:     771050
L2C AVERAGE MISS LATENCY: 48.2372 cycles
LLC TOTAL     ACCESS:    2292832  HIT:    2159660  MISS:     133172
LLC LOAD      ACCESS:     207478  HIT:     189456  MISS:      18022
LLC RFO       ACCESS:      39566  HIT:      30893  MISS:       8673
LLC PREFETCH  ACCESS:    1910184  HIT:    1803945  MISS:     106239
LLC WRITEBACK ACCESS:     135604  HIT:     135366  MISS:        238
LLC PREFETCH  REQUESTED:          0  ISSUED:          0  USEFUL:       9733  USELESS:      93353
LLC AVERAGE MISS LATENCY: 176.285 cycles
Major fault: 0 Minor fault: 6359
CPU 0 L1I EPI prefetcher final stats
CPU 0 L1D next line prefetcher final stats

DRAM Statistics
 CHANNEL 0
 RQ ROW_BUFFER_HIT:      26311  ROW_BUFFER_MISS:     106607
 DBUS_CONGESTED:      60535
 WQ ROW_BUFFER_HIT:       8720  ROW_BUFFER_MISS:      37868  FULL:          0

 AVG_CONGESTED_CYCLE: 5

CPU 0 Branch Prediction Accuracy: 99.4713% MPKI: 1.11484 Average ROB Occupancy at Mispredict: 122.228

Branch types
NOT_BRANCH: 39456615 78.9132%
BRANCH_DIRECT_JUMP: 445350 0.8907%
BRANCH_INDIRECT: 131149 0.262298%
BRANCH_CONDITIONAL: 8130196 16.2604%
BRANCH_DIRECT_CALL: 732485 1.46497%
BRANCH_INDIRECT_CALL: 172369 0.344738%
BRANCH_RETURN: 931558 1.86312%
BRANCH_OTHER: 0 0%

