Initialize SIGNATURE TABLE
ST_SET: 1
ST_WAY: 256
ST_TAG_BIT: 16
ST_TAG_MASK: ffff

Initialize PATTERN TABLE
PT_SET: 512
PT_WAY: 4
SIG_DELTA_BIT: 7
C_SIG_BIT: 4
C_DELTA_BIT: 4

Initialize PREFETCH FILTER
FILTER_SET: 1024

*** ChampSim Multicore Out-of-Order Simulator ***

Warmup Instructions: 50000000
Simulation Instructions: 50000000
Number of CPUs: 1
LLC sets: 2048
LLC ways: 16
Off-chip DRAM Size: 4096 MB Channels: 1 Width: 64-bit Data Rate: 3200 MT/s

CPU 0 runs /home/tapatil/CSE240C/SA1/ChampSim-master/ipc1_public/spec_perlbench_001.champsimtrace.xz
CPU 0 EPI prefetcher
CPU 0 L1D next line prefetcher
Heartbeat CPU 0 instructions: 10000000 cycles: 3276322 heartbeat IPC: 3.0522 cumulative IPC: 3.0522 (Simulation time: 0 hr 0 min 37 sec) 
Heartbeat CPU 0 instructions: 20000000 cycles: 6541797 heartbeat IPC: 3.06234 cumulative IPC: 3.05726 (Simulation time: 0 hr 1 min 17 sec) 
Heartbeat CPU 0 instructions: 30000002 cycles: 9859577 heartbeat IPC: 3.01406 cumulative IPC: 3.04273 (Simulation time: 0 hr 1 min 58 sec) 
Heartbeat CPU 0 instructions: 40000002 cycles: 13115437 heartbeat IPC: 3.07139 cumulative IPC: 3.04984 (Simulation time: 0 hr 2 min 37 sec) 
Heartbeat CPU 0 instructions: 50000001 cycles: 16389425 heartbeat IPC: 3.05438 cumulative IPC: 3.05075 (Simulation time: 0 hr 3 min 15 sec) 

Warmup complete CPU 0 instructions: 50000001 cycles: 16389425 (Simulation time: 0 hr 3 min 15 sec) 

Heartbeat CPU 0 instructions: 60000001 cycles: 24572906 heartbeat IPC: 1.22197 cumulative IPC: 1.22197 (Simulation time: 0 hr 3 min 55 sec) 
Heartbeat CPU 0 instructions: 70000003 cycles: 32617770 heartbeat IPC: 1.24303 cumulative IPC: 1.23241 (Simulation time: 0 hr 4 min 37 sec) 
Heartbeat CPU 0 instructions: 80000000 cycles: 40971014 heartbeat IPC: 1.19714 cumulative IPC: 1.22043 (Simulation time: 0 hr 5 min 16 sec) 
Heartbeat CPU 0 instructions: 90000000 cycles: 46695826 heartbeat IPC: 1.74678 cumulative IPC: 1.31985 (Simulation time: 0 hr 5 min 49 sec) 
Heartbeat CPU 0 instructions: 100000002 cycles: 52566171 heartbeat IPC: 1.70348 cumulative IPC: 1.3821 (Simulation time: 0 hr 6 min 23 sec) 
Finished CPU 0 instructions: 50000001 cycles: 36176746 cumulative IPC: 1.3821 (Simulation time: 0 hr 6 min 23 sec) 

ChampSim completed all CPUs

Region of Interest Statistics

CPU 0 cumulative IPC: 1.3821 instructions: 50000001 cycles: 36176746
L1D TOTAL     ACCESS:   20668143  HIT:   20253026  MISS:     415117
L1D LOAD      ACCESS:    7163967  HIT:    6950150  MISS:     213817
L1D RFO       ACCESS:    6541820  HIT:    6523314  MISS:      18506
L1D PREFETCH  ACCESS:    6962356  HIT:    6779562  MISS:     182794
L1D WRITEBACK ACCESS:          0  HIT:          0  MISS:          0
L1D PREFETCH  REQUESTED:    7179521  ISSUED:    7063009  USEFUL:      55099  USELESS:     127690
L1D AVERAGE MISS LATENCY: 57.9845 cycles
L1I TOTAL     ACCESS:   41002193  HIT:   40205138  MISS:     797055
L1I LOAD      ACCESS:    9150561  HIT:    9109759  MISS:      40802
L1I RFO       ACCESS:          0  HIT:          0  MISS:          0
L1I PREFETCH  ACCESS:   31851632  HIT:   31095379  MISS:     756253
L1I WRITEBACK ACCESS:          0  HIT:          0  MISS:          0
L1I PREFETCH  REQUESTED:   42773580  ISSUED:   42773580  USEFUL:     433261  USELESS:     323064
L1I AVERAGE MISS LATENCY: 16.9493 cycles
L2C TOTAL     ACCESS:    1726859  HIT:    1557675  MISS:     169184
L2C LOAD      ACCESS:     235633  HIT:     156980  MISS:      78653
L2C RFO       ACCESS:      18265  HIT:      12792  MISS:       5473
L2C PREFETCH  ACCESS:    1394010  HIT:    1309343  MISS:      84667
L2C WRITEBACK ACCESS:      78951  HIT:      78560  MISS:        391
L2C PREFETCH  REQUESTED:    1255008  ISSUED:    1254957  USEFUL:       6180  USELESS:      78379
L2C AVERAGE MISS LATENCY: 118.455 cycles
LLC TOTAL     ACCESS:     420814  HIT:     277249  MISS:     143565
LLC LOAD      ACCESS:      78652  HIT:      30854  MISS:      47798
LLC RFO       ACCESS:       5472  HIT:       2429  MISS:       3043
LLC PREFETCH  ACCESS:     310975  HIT:     218742  MISS:      92233
LLC WRITEBACK ACCESS:      25715  HIT:      25224  MISS:        491
LLC PREFETCH  REQUESTED:          0  ISSUED:          0  USEFUL:      14664  USELESS:      77569
LLC AVERAGE MISS LATENCY: 160.374 cycles
Major fault: 0 Minor fault: 6368
CPU 0 L1I EPI prefetcher final stats
CPU 0 L1D next line prefetcher final stats

DRAM Statistics
 CHANNEL 0
 RQ ROW_BUFFER_HIT:      32852  ROW_BUFFER_MISS:     110222
 DBUS_CONGESTED:      59679
 WQ ROW_BUFFER_HIT:       4081  ROW_BUFFER_MISS:      13333  FULL:          0

 AVG_CONGESTED_CYCLE: 4

CPU 0 Branch Prediction Accuracy: 98.7418% MPKI: 2.47758 Average ROB Occupancy at Mispredict: 80.9131

Branch types
NOT_BRANCH: 40154100 80.3082%
BRANCH_DIRECT_JUMP: 817094 1.63419%
BRANCH_INDIRECT: 303787 0.607574%
BRANCH_CONDITIONAL: 7492103 14.9842%
BRANCH_DIRECT_CALL: 471777 0.943554%
BRANCH_INDIRECT_CALL: 144546 0.289092%
BRANCH_RETURN: 616324 1.23265%
BRANCH_OTHER: 0 0%

