Initialize SIGNATURE TABLE
ST_SET: 1
ST_WAY: 256
ST_TAG_BIT: 16
ST_TAG_MASK: ffff

Initialize PATTERN TABLE
PT_SET: 512
PT_WAY: 4
SIG_DELTA_BIT: 7
C_SIG_BIT: 4
C_DELTA_BIT: 4

Initialize PREFETCH FILTER
FILTER_SET: 1024

*** ChampSim Multicore Out-of-Order Simulator ***

Warmup Instructions: 50000000
Simulation Instructions: 50000000
Number of CPUs: 1
LLC sets: 2048
LLC ways: 16
Off-chip DRAM Size: 4096 MB Channels: 1 Width: 64-bit Data Rate: 3200 MT/s

CPU 0 runs /home/tapatil/CSE240C/SA1/ChampSim-master/ipc1_public/spec_gcc_001.champsimtrace.xz
CPU 0 EPI prefetcher
CPU 0 L1D next line prefetcher
Heartbeat CPU 0 instructions: 10000003 cycles: 3219484 heartbeat IPC: 3.10609 cumulative IPC: 3.10609 (Simulation time: 0 hr 0 min 38 sec) 
Heartbeat CPU 0 instructions: 20000002 cycles: 6460854 heartbeat IPC: 3.08511 cumulative IPC: 3.09557 (Simulation time: 0 hr 1 min 18 sec) 
Heartbeat CPU 0 instructions: 30000000 cycles: 9662312 heartbeat IPC: 3.12358 cumulative IPC: 3.10485 (Simulation time: 0 hr 1 min 57 sec) 
Heartbeat CPU 0 instructions: 40000001 cycles: 12901027 heartbeat IPC: 3.08764 cumulative IPC: 3.10053 (Simulation time: 0 hr 2 min 38 sec) 
Heartbeat CPU 0 instructions: 50000001 cycles: 16141764 heartbeat IPC: 3.08572 cumulative IPC: 3.09755 (Simulation time: 0 hr 3 min 19 sec) 

Warmup complete CPU 0 instructions: 50000001 cycles: 16141764 (Simulation time: 0 hr 3 min 19 sec) 

Heartbeat CPU 0 instructions: 60000000 cycles: 23663713 heartbeat IPC: 1.32944 cumulative IPC: 1.32944 (Simulation time: 0 hr 3 min 58 sec) 
Heartbeat CPU 0 instructions: 70000002 cycles: 31336629 heartbeat IPC: 1.30329 cumulative IPC: 1.31623 (Simulation time: 0 hr 4 min 37 sec) 
Heartbeat CPU 0 instructions: 80000000 cycles: 38798478 heartbeat IPC: 1.34015 cumulative IPC: 1.32411 (Simulation time: 0 hr 5 min 16 sec) 
Heartbeat CPU 0 instructions: 90000003 cycles: 46519962 heartbeat IPC: 1.29509 cumulative IPC: 1.31673 (Simulation time: 0 hr 5 min 54 sec) 
Heartbeat CPU 0 instructions: 100000000 cycles: 54456769 heartbeat IPC: 1.25995 cumulative IPC: 1.30497 (Simulation time: 0 hr 6 min 33 sec) 
Finished CPU 0 instructions: 50000000 cycles: 38315009 cumulative IPC: 1.30497 (Simulation time: 0 hr 6 min 33 sec) 

ChampSim completed all CPUs

Region of Interest Statistics

CPU 0 cumulative IPC: 1.30497 instructions: 50000000 cycles: 38315009
L1D TOTAL     ACCESS:   19292319  HIT:   18187169  MISS:    1105150
L1D LOAD      ACCESS:    7217947  HIT:    6738176  MISS:     479771
L1D RFO       ACCESS:    5115529  HIT:    5035886  MISS:      79643
L1D PREFETCH  ACCESS:    6958843  HIT:    6413107  MISS:     545736
L1D WRITEBACK ACCESS:          0  HIT:          0  MISS:          0
L1D PREFETCH  REQUESTED:    7262018  ISSUED:    7164683  USEFUL:     275498  USELESS:     270250
L1D AVERAGE MISS LATENCY: 25.758 cycles
L1I TOTAL     ACCESS:   39080596  HIT:   38448831  MISS:     631765
L1I LOAD      ACCESS:    9277747  HIT:    9250515  MISS:      27232
L1I RFO       ACCESS:          0  HIT:          0  MISS:          0
L1I PREFETCH  ACCESS:   29802849  HIT:   29198316  MISS:     604533
L1I WRITEBACK ACCESS:          0  HIT:          0  MISS:          0
L1I PREFETCH  REQUESTED:   43172829  ISSUED:   43172829  USEFUL:     364860  USELESS:     239661
L1I AVERAGE MISS LATENCY: 21.4033 cycles
L2C TOTAL     ACCESS:    2900853  HIT:    2638218  MISS:     262635
L2C LOAD      ACCESS:     469317  HIT:     397548  MISS:      71769
L2C RFO       ACCESS:      74978  HIT:      35975  MISS:      39003
L2C PREFETCH  ACCESS:    2102799  HIT:    1951453  MISS:     151346
L2C WRITEBACK ACCESS:     253759  HIT:     253242  MISS:        517
L2C PREFETCH  REQUESTED:    2021131  ISSUED:    2020813  USEFUL:      32358  USELESS:     118113
L2C AVERAGE MISS LATENCY: 67.059 cycles
LLC TOTAL     ACCESS:     681158  HIT:     606186  MISS:      74972
LLC LOAD      ACCESS:      71520  HIT:      65438  MISS:       6082
LLC RFO       ACCESS:      39002  HIT:      18227  MISS:      20775
LLC PREFETCH  ACCESS:     476594  HIT:     429579  MISS:      47015
LLC WRITEBACK ACCESS:      94042  HIT:      92942  MISS:       1100
LLC PREFETCH  REQUESTED:          0  ISSUED:          0  USEFUL:       9657  USELESS:      40225
LLC AVERAGE MISS LATENCY: 200.848 cycles
Major fault: 0 Minor fault: 6868
CPU 0 L1I EPI prefetcher final stats
CPU 0 L1D next line prefetcher final stats

DRAM Statistics
 CHANNEL 0
 RQ ROW_BUFFER_HIT:      20919  ROW_BUFFER_MISS:      52944
 DBUS_CONGESTED:      41566
 WQ ROW_BUFFER_HIT:       3648  ROW_BUFFER_MISS:      24490  FULL:          0

 AVG_CONGESTED_CYCLE: 6

CPU 0 Branch Prediction Accuracy: 95.8872% MPKI: 9.67286 Average ROB Occupancy at Mispredict: 68.9371

Branch types
NOT_BRANCH: 38240105 76.4802%
BRANCH_DIRECT_JUMP: 653296 1.30659%
BRANCH_INDIRECT: 37098 0.074196%
BRANCH_CONDITIONAL: 8897820 17.7956%
BRANCH_DIRECT_CALL: 992620 1.98524%
BRANCH_INDIRECT_CALL: 93046 0.186092%
BRANCH_RETURN: 1085674 2.17135%
BRANCH_OTHER: 0 0%

