Initialize SIGNATURE TABLE
ST_SET: 1
ST_WAY: 256
ST_TAG_BIT: 16
ST_TAG_MASK: ffff

Initialize PATTERN TABLE
PT_SET: 512
PT_WAY: 4
SIG_DELTA_BIT: 7
C_SIG_BIT: 4
C_DELTA_BIT: 4

Initialize PREFETCH FILTER
FILTER_SET: 1024

*** ChampSim Multicore Out-of-Order Simulator ***

Warmup Instructions: 50000000
Simulation Instructions: 50000000
Number of CPUs: 1
LLC sets: 2048
LLC ways: 16
Off-chip DRAM Size: 4096 MB Channels: 1 Width: 64-bit Data Rate: 3200 MT/s

CPU 0 runs /home/tapatil/CSE240C/SA1/ChampSim-master/ipc1_public/spec_gcc_003.champsimtrace.xz
CPU 0 EPI prefetcher
CPU 0 L1D next line prefetcher
Heartbeat CPU 0 instructions: 10000001 cycles: 3499961 heartbeat IPC: 2.85717 cumulative IPC: 2.85717 (Simulation time: 0 hr 0 min 31 sec) 
Heartbeat CPU 0 instructions: 20000000 cycles: 7008652 heartbeat IPC: 2.85007 cumulative IPC: 2.85362 (Simulation time: 0 hr 1 min 1 sec) 
Heartbeat CPU 0 instructions: 30000002 cycles: 10465523 heartbeat IPC: 2.89279 cumulative IPC: 2.86656 (Simulation time: 0 hr 1 min 31 sec) 
Heartbeat CPU 0 instructions: 40000000 cycles: 13939285 heartbeat IPC: 2.87872 cumulative IPC: 2.86959 (Simulation time: 0 hr 2 min 1 sec) 
Heartbeat CPU 0 instructions: 50000001 cycles: 17252367 heartbeat IPC: 3.01834 cumulative IPC: 2.89815 (Simulation time: 0 hr 2 min 32 sec) 

Warmup complete CPU 0 instructions: 50000001 cycles: 17252367 (Simulation time: 0 hr 2 min 32 sec) 

Heartbeat CPU 0 instructions: 60000000 cycles: 57858681 heartbeat IPC: 0.246267 cumulative IPC: 0.246267 (Simulation time: 0 hr 3 min 51 sec) 
Heartbeat CPU 0 instructions: 70000000 cycles: 101482374 heartbeat IPC: 0.229233 cumulative IPC: 0.237445 (Simulation time: 0 hr 5 min 13 sec) 
Heartbeat CPU 0 instructions: 80000003 cycles: 145683041 heartbeat IPC: 0.226241 cumulative IPC: 0.233589 (Simulation time: 0 hr 6 min 36 sec) 
Heartbeat CPU 0 instructions: 90000002 cycles: 182754265 heartbeat IPC: 0.269751 cumulative IPC: 0.241689 (Simulation time: 0 hr 7 min 52 sec) 
Heartbeat CPU 0 instructions: 100000000 cycles: 229555773 heartbeat IPC: 0.213668 cumulative IPC: 0.235512 (Simulation time: 0 hr 9 min 19 sec) 
Finished CPU 0 instructions: 50000000 cycles: 212303407 cumulative IPC: 0.235512 (Simulation time: 0 hr 9 min 19 sec) 

ChampSim completed all CPUs

Region of Interest Statistics

CPU 0 cumulative IPC: 0.235512 instructions: 50000000 cycles: 212303407
L1D TOTAL     ACCESS:   16794729  HIT:   11070469  MISS:    5724260
L1D LOAD      ACCESS:    4541770  HIT:    4158517  MISS:     383253
L1D RFO       ACCESS:    8200971  HIT:    3149404  MISS:    5051567
L1D PREFETCH  ACCESS:    4051988  HIT:    3762548  MISS:     289440
L1D WRITEBACK ACCESS:          0  HIT:          0  MISS:          0
L1D PREFETCH  REQUESTED:    4559261  ISSUED:    4498883  USEFUL:     152062  USELESS:     137558
L1D AVERAGE MISS LATENCY: 510.737 cycles
L1I TOTAL     ACCESS:   29228898  HIT:   27947724  MISS:    1281174
L1I LOAD      ACCESS:   11295698  HIT:   11231437  MISS:      64261
L1I RFO       ACCESS:          0  HIT:          0  MISS:          0
L1I PREFETCH  ACCESS:   17933200  HIT:   16716287  MISS:    1216913
L1I WRITEBACK ACCESS:          0  HIT:          0  MISS:          0
L1I PREFETCH  REQUESTED:   26732135  ISSUED:   26732135  USEFUL:     768704  USELESS:     448136
L1I AVERAGE MISS LATENCY: 67.4919 cycles
L2C TOTAL     ACCESS:   12521232  HIT:    6448284  MISS:    6072948
L2C LOAD      ACCESS:     245854  HIT:      69529  MISS:     176325
L2C RFO       ACCESS:    5049768  HIT:       6480  MISS:    5043288
L2C PREFETCH  ACCESS:    2067761  HIT:    1214686  MISS:     853075
L2C WRITEBACK ACCESS:    5157849  HIT:    5157589  MISS:        260
L2C PREFETCH  REQUESTED:    2293498  ISSUED:    2293142  USEFUL:      28385  USELESS:     821747
L2C AVERAGE MISS LATENCY: 481.202 cycles
LLC TOTAL     ACCESS:   12003111  HIT:    7210736  MISS:    4792375
LLC LOAD      ACCESS:     176281  HIT:     132332  MISS:      43949
LLC RFO       ACCESS:    5043288  HIT:     569663  MISS:    4473625
LLC PREFETCH  ACCESS:    1649779  HIT:    1374978  MISS:     274801
LLC WRITEBACK ACCESS:    5133763  HIT:    5133763  MISS:          0
LLC PREFETCH  REQUESTED:          0  ISSUED:          0  USEFUL:      13391  USELESS:     261279
LLC AVERAGE MISS LATENCY: 580.322 cycles
Major fault: 0 Minor fault: 2822
CPU 0 L1I EPI prefetcher final stats
CPU 0 L1D next line prefetcher final stats

DRAM Statistics
 CHANNEL 0
 RQ ROW_BUFFER_HIT:    1444708  ROW_BUFFER_MISS:    3347626
 DBUS_CONGESTED:    8334751
 WQ ROW_BUFFER_HIT:    1199319  ROW_BUFFER_MISS:    3302733  FULL:          0

 AVG_CONGESTED_CYCLE: 6

CPU 0 Branch Prediction Accuracy: 99.665% MPKI: 0.78342 Average ROB Occupancy at Mispredict: 126.85

Branch types
NOT_BRANCH: 38305858 76.6117%
BRANCH_DIRECT_JUMP: 384281 0.768562%
BRANCH_INDIRECT: 71949 0.143898%
BRANCH_CONDITIONAL: 9879825 19.7597%
BRANCH_DIRECT_CALL: 650586 1.30117%
BRANCH_INDIRECT_CALL: 28456 0.056912%
BRANCH_RETURN: 679046 1.35809%
BRANCH_OTHER: 0 0%

