Initialize SIGNATURE TABLE
ST_SET: 1
ST_WAY: 256
ST_TAG_BIT: 16
ST_TAG_MASK: ffff

Initialize PATTERN TABLE
PT_SET: 512
PT_WAY: 4
SIG_DELTA_BIT: 7
C_SIG_BIT: 4
C_DELTA_BIT: 4

Initialize PREFETCH FILTER
FILTER_SET: 1024

*** ChampSim Multicore Out-of-Order Simulator ***

Warmup Instructions: 50000000
Simulation Instructions: 50000000
Number of CPUs: 1
LLC sets: 2048
LLC ways: 16
Off-chip DRAM Size: 4096 MB Channels: 1 Width: 64-bit Data Rate: 3200 MT/s

CPU 0 runs /home/tapatil/CSE240C/SA1/ChampSim-master/ipc1_public/client_004.champsimtrace.xz
CPU 0 EPI prefetcher
CPU 0 L1D next line prefetcher
Heartbeat CPU 0 instructions: 10000000 cycles: 3593531 heartbeat IPC: 2.78278 cumulative IPC: 2.78278 (Simulation time: 0 hr 0 min 36 sec) 
Heartbeat CPU 0 instructions: 20000003 cycles: 7058264 heartbeat IPC: 2.88623 cumulative IPC: 2.83356 (Simulation time: 0 hr 1 min 9 sec) 
Heartbeat CPU 0 instructions: 30000000 cycles: 10649814 heartbeat IPC: 2.78431 cumulative IPC: 2.81695 (Simulation time: 0 hr 1 min 45 sec) 
Heartbeat CPU 0 instructions: 40000003 cycles: 14330710 heartbeat IPC: 2.71673 cumulative IPC: 2.79121 (Simulation time: 0 hr 2 min 21 sec) 
Heartbeat CPU 0 instructions: 50000001 cycles: 17849808 heartbeat IPC: 2.84164 cumulative IPC: 2.80115 (Simulation time: 0 hr 2 min 58 sec) 

Warmup complete CPU 0 instructions: 50000001 cycles: 17849808 (Simulation time: 0 hr 2 min 58 sec) 

Heartbeat CPU 0 instructions: 60000002 cycles: 25667454 heartbeat IPC: 1.27916 cumulative IPC: 1.27916 (Simulation time: 0 hr 3 min 27 sec) 
Heartbeat CPU 0 instructions: 70000001 cycles: 33470939 heartbeat IPC: 1.28148 cumulative IPC: 1.28032 (Simulation time: 0 hr 4 min 1 sec) 
Heartbeat CPU 0 instructions: 80000002 cycles: 42063590 heartbeat IPC: 1.16379 cumulative IPC: 1.23896 (Simulation time: 0 hr 4 min 31 sec) 
Heartbeat CPU 0 instructions: 90000000 cycles: 50124200 heartbeat IPC: 1.2406 cumulative IPC: 1.23937 (Simulation time: 0 hr 5 min 3 sec) 
Heartbeat CPU 0 instructions: 100000002 cycles: 57958469 heartbeat IPC: 1.27644 cumulative IPC: 1.24661 (Simulation time: 0 hr 5 min 34 sec) 
Finished CPU 0 instructions: 50000001 cycles: 40108661 cumulative IPC: 1.24661 (Simulation time: 0 hr 5 min 34 sec) 

ChampSim completed all CPUs

Region of Interest Statistics

CPU 0 cumulative IPC: 1.24661 instructions: 50000001 cycles: 40108661
L1D TOTAL     ACCESS:   21902686  HIT:   21013776  MISS:     888910
L1D LOAD      ACCESS:    8693748  HIT:    8297631  MISS:     396117
L1D RFO       ACCESS:    4808760  HIT:    4687355  MISS:     121405
L1D PREFETCH  ACCESS:    8400178  HIT:    8028790  MISS:     371388
L1D WRITEBACK ACCESS:          0  HIT:          0  MISS:          0
L1D PREFETCH  REQUESTED:    8733288  ISSUED:    8573523  USEFUL:     132921  USELESS:     238475
L1D AVERAGE MISS LATENCY: 29.8792 cycles
L1I TOTAL     ACCESS:   31612445  HIT:   30554585  MISS:    1057860
L1I LOAD      ACCESS:    9386949  HIT:    9309129  MISS:      77820
L1I RFO       ACCESS:          0  HIT:          0  MISS:          0
L1I PREFETCH  ACCESS:   22225496  HIT:   21245456  MISS:     980040
L1I WRITEBACK ACCESS:          0  HIT:          0  MISS:          0
L1I PREFETCH  REQUESTED:   27383238  ISSUED:   27383238  USEFUL:     568418  USELESS:     411676
L1I AVERAGE MISS LATENCY: 23.0711 cycles
L2C TOTAL     ACCESS:    2866763  HIT:    2568199  MISS:     298564
L2C LOAD      ACCESS:     436995  HIT:     366701  MISS:      70294
L2C RFO       ACCESS:     117397  HIT:      44906  MISS:      72491
L2C PREFETCH  ACCESS:    2090367  HIT:    1935424  MISS:     154943
L2C WRITEBACK ACCESS:     222004  HIT:     221168  MISS:        836
L2C PREFETCH  REQUESTED:    1990679  ISSUED:    1989576  USEFUL:      22707  USELESS:     131065
L2C AVERAGE MISS LATENCY: 80.1128 cycles
LLC TOTAL     ACCESS:     769031  HIT:     637840  MISS:     131191
LLC LOAD      ACCESS:      70266  HIT:      47616  MISS:      22650
LLC RFO       ACCESS:      72490  HIT:      41498  MISS:      30992
LLC PREFETCH  ACCESS:     524926  HIT:     447618  MISS:      77308
LLC WRITEBACK ACCESS:     101349  HIT:     101108  MISS:        241
LLC PREFETCH  REQUESTED:          0  ISSUED:          0  USEFUL:      25549  USELESS:      51386
LLC AVERAGE MISS LATENCY: 179.899 cycles
Major fault: 0 Minor fault: 3979
CPU 0 L1I EPI prefetcher final stats
CPU 0 L1D next line prefetcher final stats

DRAM Statistics
 CHANNEL 0
 RQ ROW_BUFFER_HIT:      32819  ROW_BUFFER_MISS:      98119
 DBUS_CONGESTED:      60806
 WQ ROW_BUFFER_HIT:       8991  ROW_BUFFER_MISS:      35677  FULL:          0

 AVG_CONGESTED_CYCLE: 6

CPU 0 Branch Prediction Accuracy: 94.1242% MPKI: 11.6089 Average ROB Occupancy at Mispredict: 57.4134

Branch types
NOT_BRANCH: 40121075 80.2421%
BRANCH_DIRECT_JUMP: 644555 1.28911%
BRANCH_INDIRECT: 201946 0.403892%
BRANCH_CONDITIONAL: 7003556 14.0071%
BRANCH_DIRECT_CALL: 564821 1.12964%
BRANCH_INDIRECT_CALL: 445012 0.890024%
BRANCH_RETURN: 1018716 2.03743%
BRANCH_OTHER: 0 0%

