Initialize SIGNATURE TABLE
ST_SET: 1
ST_WAY: 256
ST_TAG_BIT: 16
ST_TAG_MASK: ffff

Initialize PATTERN TABLE
PT_SET: 512
PT_WAY: 4
SIG_DELTA_BIT: 7
C_SIG_BIT: 4
C_DELTA_BIT: 4

Initialize PREFETCH FILTER
FILTER_SET: 1024

*** ChampSim Multicore Out-of-Order Simulator ***

Warmup Instructions: 50000000
Simulation Instructions: 50000000
Number of CPUs: 1
LLC sets: 2048
LLC ways: 16
Off-chip DRAM Size: 4096 MB Channels: 1 Width: 64-bit Data Rate: 3200 MT/s

CPU 0 runs /home/tapatil/CSE240C/SA1/ChampSim-master/ipc1_public/client_004.champsimtrace.xz
L1I D-JOLT instruction prefetcher has been constructed!
CPU 0 L1D next line prefetcher
Heartbeat CPU 0 instructions: 10000000 cycles: 3592548 heartbeat IPC: 2.78354 cumulative IPC: 2.78354 (Simulation time: 0 hr 0 min 28 sec) 
Heartbeat CPU 0 instructions: 20000003 cycles: 7057044 heartbeat IPC: 2.88642 cumulative IPC: 2.83405 (Simulation time: 0 hr 0 min 56 sec) 
Heartbeat CPU 0 instructions: 30000000 cycles: 10647854 heartbeat IPC: 2.78489 cumulative IPC: 2.81747 (Simulation time: 0 hr 1 min 25 sec) 
Heartbeat CPU 0 instructions: 40000003 cycles: 14328485 heartbeat IPC: 2.71693 cumulative IPC: 2.79164 (Simulation time: 0 hr 1 min 53 sec) 
Heartbeat CPU 0 instructions: 50000001 cycles: 17847853 heartbeat IPC: 2.84142 cumulative IPC: 2.80146 (Simulation time: 0 hr 2 min 20 sec) 

Warmup complete CPU 0 instructions: 50000001 cycles: 17847853 (Simulation time: 0 hr 2 min 20 sec) 

Heartbeat CPU 0 instructions: 60000002 cycles: 25860755 heartbeat IPC: 1.24799 cumulative IPC: 1.24799 (Simulation time: 0 hr 2 min 44 sec) 
Heartbeat CPU 0 instructions: 70000001 cycles: 33894196 heartbeat IPC: 1.2448 cumulative IPC: 1.24639 (Simulation time: 0 hr 3 min 10 sec) 
Heartbeat CPU 0 instructions: 80000002 cycles: 42939260 heartbeat IPC: 1.10558 cumulative IPC: 1.19563 (Simulation time: 0 hr 3 min 35 sec) 
Heartbeat CPU 0 instructions: 90000000 cycles: 51275281 heartbeat IPC: 1.19961 cumulative IPC: 1.19662 (Simulation time: 0 hr 4 min 0 sec) 
Heartbeat CPU 0 instructions: 100000001 cycles: 59447364 heartbeat IPC: 1.22368 cumulative IPC: 1.20194 (Simulation time: 0 hr 4 min 25 sec) 
Finished CPU 0 instructions: 50000000 cycles: 41599511 cumulative IPC: 1.20194 (Simulation time: 0 hr 4 min 25 sec) 

ChampSim completed all CPUs

Region of Interest Statistics

CPU 0 cumulative IPC: 1.20194 instructions: 50000000 cycles: 41599511
L1D TOTAL     ACCESS:   21963477  HIT:   21074482  MISS:     888995
L1D LOAD      ACCESS:    8722609  HIT:    8326714  MISS:     395895
L1D RFO       ACCESS:    4811841  HIT:    4690439  MISS:     121402
L1D PREFETCH  ACCESS:    8429027  HIT:    8057329  MISS:     371698
L1D WRITEBACK ACCESS:          0  HIT:          0  MISS:          0
L1D PREFETCH  REQUESTED:    8761931  ISSUED:    8602517  USEFUL:     133161  USELESS:     238545
L1D AVERAGE MISS LATENCY: 29.5757 cycles
L1I TOTAL     ACCESS:   13703966  HIT:   12623135  MISS:    1080831
L1I LOAD      ACCESS:    9398912  HIT:    9251346  MISS:     147566
L1I RFO       ACCESS:          0  HIT:          0  MISS:          0
L1I PREFETCH  ACCESS:    4305054  HIT:    3371789  MISS:     933265
L1I WRITEBACK ACCESS:          0  HIT:          0  MISS:          0
L1I PREFETCH  REQUESTED:    4704918  ISSUED:    4621455  USEFUL:     513664  USELESS:     419675
L1I AVERAGE MISS LATENCY: 22.0072 cycles
L2C TOTAL     ACCESS:    2931540  HIT:    2632916  MISS:     298624
L2C LOAD      ACCESS:     510376  HIT:     420153  MISS:      90223
L2C RFO       ACCESS:     117353  HIT:      44722  MISS:      72631
L2C PREFETCH  ACCESS:    2081791  HIT:    1946773  MISS:     135018
L2C WRITEBACK ACCESS:     222020  HIT:     221268  MISS:        752
L2C PREFETCH  REQUESTED:    1607357  ISSUED:    1606685  USEFUL:      29925  USELESS:     104622
L2C AVERAGE MISS LATENCY: 75.4588 cycles
LLC TOTAL     ACCESS:     703902  HIT:     573980  MISS:     129922
LLC LOAD      ACCESS:      90208  HIT:      60663  MISS:      29545
LLC RFO       ACCESS:      72631  HIT:      42044  MISS:      30587
LLC PREFETCH  ACCESS:     439258  HIT:     369663  MISS:      69595
LLC WRITEBACK ACCESS:     101805  HIT:     101610  MISS:        195
LLC PREFETCH  REQUESTED:          0  ISSUED:          0  USEFUL:      25726  USELESS:      46591
LLC AVERAGE MISS LATENCY: 167.659 cycles
Major fault: 0 Minor fault: 3982
CPU 0 L1D next line prefetcher final stats

DRAM Statistics
 CHANNEL 0
 RQ ROW_BUFFER_HIT:      30951  ROW_BUFFER_MISS:      98765
 DBUS_CONGESTED:      54782
 WQ ROW_BUFFER_HIT:       9972  ROW_BUFFER_MISS:      33348  FULL:          0

 AVG_CONGESTED_CYCLE: 6

CPU 0 Branch Prediction Accuracy: 94.1242% MPKI: 11.6089 Average ROB Occupancy at Mispredict: 55.4761

Branch types
NOT_BRANCH: 40121080 80.2422%
BRANCH_DIRECT_JUMP: 644555 1.28911%
BRANCH_INDIRECT: 201946 0.403892%
BRANCH_CONDITIONAL: 7003557 14.0071%
BRANCH_DIRECT_CALL: 564821 1.12964%
BRANCH_INDIRECT_CALL: 445012 0.890024%
BRANCH_RETURN: 1018716 2.03743%
BRANCH_OTHER: 0 0%

