Initialize SIGNATURE TABLE
ST_SET: 1
ST_WAY: 256
ST_TAG_BIT: 16
ST_TAG_MASK: ffff

Initialize PATTERN TABLE
PT_SET: 512
PT_WAY: 4
SIG_DELTA_BIT: 7
C_SIG_BIT: 4
C_DELTA_BIT: 4

Initialize PREFETCH FILTER
FILTER_SET: 1024

*** ChampSim Multicore Out-of-Order Simulator ***

Warmup Instructions: 50000000
Simulation Instructions: 50000000
Number of CPUs: 1
LLC sets: 2048
LLC ways: 16
Off-chip DRAM Size: 4096 MB Channels: 1 Width: 64-bit Data Rate: 3200 MT/s

CPU 0 runs /home/tapatil/CSE240C/SA1/ChampSim-master/ipc1_public/server_003.champsimtrace.xz
L1I D-JOLT instruction prefetcher has been constructed!
CPU 0 L1D next line prefetcher
Heartbeat CPU 0 instructions: 10000002 cycles: 3217820 heartbeat IPC: 3.10769 cumulative IPC: 3.10769 (Simulation time: 0 hr 0 min 27 sec) 
Heartbeat CPU 0 instructions: 20000000 cycles: 6532649 heartbeat IPC: 3.01675 cumulative IPC: 3.06155 (Simulation time: 0 hr 0 min 55 sec) 
Heartbeat CPU 0 instructions: 30000000 cycles: 9737108 heartbeat IPC: 3.12065 cumulative IPC: 3.081 (Simulation time: 0 hr 1 min 23 sec) 
Heartbeat CPU 0 instructions: 40000001 cycles: 13150804 heartbeat IPC: 2.92938 cumulative IPC: 3.04164 (Simulation time: 0 hr 1 min 53 sec) 
Heartbeat CPU 0 instructions: 50000003 cycles: 16869592 heartbeat IPC: 2.68905 cumulative IPC: 2.96391 (Simulation time: 0 hr 2 min 24 sec) 

Warmup complete CPU 0 instructions: 50000003 cycles: 16869592 (Simulation time: 0 hr 2 min 24 sec) 

Heartbeat CPU 0 instructions: 60000000 cycles: 26171063 heartbeat IPC: 1.0751 cumulative IPC: 1.0751 (Simulation time: 0 hr 2 min 52 sec) 
Heartbeat CPU 0 instructions: 70000003 cycles: 35364939 heartbeat IPC: 1.08768 cumulative IPC: 1.08135 (Simulation time: 0 hr 3 min 18 sec) 
Heartbeat CPU 0 instructions: 80000000 cycles: 45380069 heartbeat IPC: 0.998489 cumulative IPC: 1.05224 (Simulation time: 0 hr 3 min 45 sec) 
Heartbeat CPU 0 instructions: 90000001 cycles: 55336605 heartbeat IPC: 1.00437 cumulative IPC: 1.03985 (Simulation time: 0 hr 4 min 13 sec) 
Heartbeat CPU 0 instructions: 100000001 cycles: 65909764 heartbeat IPC: 0.945791 cumulative IPC: 1.01957 (Simulation time: 0 hr 4 min 40 sec) 
Finished CPU 0 instructions: 50000002 cycles: 49040173 cumulative IPC: 1.01957 (Simulation time: 0 hr 4 min 40 sec) 

ChampSim completed all CPUs

Region of Interest Statistics

CPU 0 cumulative IPC: 1.01957 instructions: 50000002 cycles: 49040173
L1D TOTAL     ACCESS:   20001527  HIT:   18860675  MISS:    1140852
L1D LOAD      ACCESS:    7853706  HIT:    7324003  MISS:     529703
L1D RFO       ACCESS:    4554284  HIT:    4436940  MISS:     117344
L1D PREFETCH  ACCESS:    7593537  HIT:    7099732  MISS:     493805
L1D WRITEBACK ACCESS:          0  HIT:          0  MISS:          0
L1D PREFETCH  REQUESTED:    7913208  ISSUED:    7821558  USEFUL:     155621  USELESS:     338143
L1D AVERAGE MISS LATENCY: 53.9031 cycles
L1I TOTAL     ACCESS:   14921458  HIT:   13428858  MISS:    1492600
L1I LOAD      ACCESS:    9309104  HIT:    9169630  MISS:     139474
L1I RFO       ACCESS:          0  HIT:          0  MISS:          0
L1I PREFETCH  ACCESS:    5612354  HIT:    4259228  MISS:    1353126
L1I WRITEBACK ACCESS:          0  HIT:          0  MISS:          0
L1I PREFETCH  REQUESTED:    6139326  ISSUED:    5940464  USEFUL:     889476  USELESS:     463869
L1I AVERAGE MISS LATENCY: 33.5932 cycles
L2C TOTAL     ACCESS:    3627656  HIT:    2644918  MISS:     982738
L2C LOAD      ACCESS:     613401  HIT:     339526  MISS:     273875
L2C RFO       ACCESS:     114652  HIT:      40794  MISS:      73858
L2C PREFETCH  ACCESS:    2615332  HIT:    1981065  MISS:     634267
L2C WRITEBACK ACCESS:     284271  HIT:     283533  MISS:        738
L2C PREFETCH  REQUESTED:    2397800  ISSUED:    2395792  USEFUL:      34895  USELESS:     597010
L2C AVERAGE MISS LATENCY: 76.4095 cycles
LLC TOTAL     ACCESS:    1829333  HIT:    1476731  MISS:     352602
LLC LOAD      ACCESS:     273642  HIT:     201504  MISS:      72138
LLC RFO       ACCESS:      73851  HIT:      32239  MISS:      41612
LLC PREFETCH  ACCESS:    1317804  HIT:    1080166  MISS:     237638
LLC WRITEBACK ACCESS:     164036  HIT:     162822  MISS:       1214
LLC PREFETCH  REQUESTED:          0  ISSUED:          0  USEFUL:      38561  USELESS:     189963
LLC AVERAGE MISS LATENCY: 184.364 cycles
Major fault: 0 Minor fault: 7777
CPU 0 L1D next line prefetcher final stats

DRAM Statistics
 CHANNEL 0
 RQ ROW_BUFFER_HIT:      73085  ROW_BUFFER_MISS:     278275
 DBUS_CONGESTED:     171886
 WQ ROW_BUFFER_HIT:      24695  ROW_BUFFER_MISS:      76966  FULL:          0

 AVG_CONGESTED_CYCLE: 5

CPU 0 Branch Prediction Accuracy: 95.439% MPKI: 9.02702 Average ROB Occupancy at Mispredict: 67.3464

Branch types
NOT_BRANCH: 40104088 80.2082%
BRANCH_DIRECT_JUMP: 497928 0.995856%
BRANCH_INDIRECT: 130587 0.261174%
BRANCH_CONDITIONAL: 7219018 14.438%
BRANCH_DIRECT_CALL: 625807 1.25161%
BRANCH_INDIRECT_CALL: 389787 0.779574%
BRANCH_RETURN: 1032747 2.06549%
BRANCH_OTHER: 0 0%

