Initialize SIGNATURE TABLE
ST_SET: 1
ST_WAY: 256
ST_TAG_BIT: 16
ST_TAG_MASK: ffff

Initialize PATTERN TABLE
PT_SET: 512
PT_WAY: 4
SIG_DELTA_BIT: 7
C_SIG_BIT: 4
C_DELTA_BIT: 4

Initialize PREFETCH FILTER
FILTER_SET: 1024

*** ChampSim Multicore Out-of-Order Simulator ***

Warmup Instructions: 50000000
Simulation Instructions: 50000000
Number of CPUs: 1
LLC sets: 2048
LLC ways: 16
Off-chip DRAM Size: 4096 MB Channels: 1 Width: 64-bit Data Rate: 3200 MT/s

CPU 0 runs /home/tapatil/CSE240C/SA1/ChampSim-master/ipc1_public/spec_gobmk_001.champsimtrace.xz
L1I D-JOLT instruction prefetcher has been constructed!
CPU 0 L1D next line prefetcher
Heartbeat CPU 0 instructions: 10000003 cycles: 3506799 heartbeat IPC: 2.8516 cumulative IPC: 2.8516 (Simulation time: 0 hr 0 min 25 sec) 
Heartbeat CPU 0 instructions: 20000002 cycles: 6986959 heartbeat IPC: 2.87343 cumulative IPC: 2.86248 (Simulation time: 0 hr 0 min 50 sec) 
Heartbeat CPU 0 instructions: 30000002 cycles: 10505807 heartbeat IPC: 2.84184 cumulative IPC: 2.85556 (Simulation time: 0 hr 1 min 15 sec) 
Heartbeat CPU 0 instructions: 40000001 cycles: 14024800 heartbeat IPC: 2.84172 cumulative IPC: 2.85209 (Simulation time: 0 hr 1 min 41 sec) 
Heartbeat CPU 0 instructions: 50000001 cycles: 17564818 heartbeat IPC: 2.82484 cumulative IPC: 2.8466 (Simulation time: 0 hr 2 min 6 sec) 

Warmup complete CPU 0 instructions: 50000001 cycles: 17564818 (Simulation time: 0 hr 2 min 6 sec) 

Heartbeat CPU 0 instructions: 60000000 cycles: 26329273 heartbeat IPC: 1.14097 cumulative IPC: 1.14097 (Simulation time: 0 hr 2 min 28 sec) 
Heartbeat CPU 0 instructions: 70000002 cycles: 34732180 heartbeat IPC: 1.19006 cumulative IPC: 1.165 (Simulation time: 0 hr 2 min 49 sec) 
Heartbeat CPU 0 instructions: 80000003 cycles: 43569878 heartbeat IPC: 1.13152 cumulative IPC: 1.15362 (Simulation time: 0 hr 3 min 10 sec) 
Heartbeat CPU 0 instructions: 90000001 cycles: 52065913 heartbeat IPC: 1.17702 cumulative IPC: 1.15938 (Simulation time: 0 hr 3 min 31 sec) 
Heartbeat CPU 0 instructions: 100000003 cycles: 60881169 heartbeat IPC: 1.1344 cumulative IPC: 1.1543 (Simulation time: 0 hr 3 min 52 sec) 
Finished CPU 0 instructions: 50000002 cycles: 43316351 cumulative IPC: 1.1543 (Simulation time: 0 hr 3 min 52 sec) 

ChampSim completed all CPUs

Region of Interest Statistics

CPU 0 cumulative IPC: 1.1543 instructions: 50000002 cycles: 43316351
L1D TOTAL     ACCESS:   17980938  HIT:   17601426  MISS:     379512
L1D LOAD      ACCESS:    7209661  HIT:    7074249  MISS:     135412
L1D RFO       ACCESS:    3700822  HIT:    3596263  MISS:     104559
L1D PREFETCH  ACCESS:    7070455  HIT:    6930914  MISS:     139541
L1D WRITEBACK ACCESS:          0  HIT:          0  MISS:          0
L1D PREFETCH  REQUESTED:    7215073  ISSUED:    7132369  USEFUL:      44854  USELESS:      94693
L1D AVERAGE MISS LATENCY: 33.6888 cycles
L1I TOTAL     ACCESS:   14548848  HIT:   12783365  MISS:    1765483
L1I LOAD      ACCESS:    8981124  HIT:    8933819  MISS:      47305
L1I RFO       ACCESS:          0  HIT:          0  MISS:          0
L1I PREFETCH  ACCESS:    5567724  HIT:    3849546  MISS:    1718178
L1I WRITEBACK ACCESS:          0  HIT:          0  MISS:          0
L1I PREFETCH  REQUESTED:    5823241  ISSUED:    5617750  USEFUL:     837055  USELESS:     881097
L1I AVERAGE MISS LATENCY: 15.2099 cycles
L2C TOTAL     ACCESS:    3083468  HIT:    2956183  MISS:     127285
L2C LOAD      ACCESS:     154945  HIT:     119267  MISS:      35678
L2C RFO       ACCESS:     104206  HIT:      69773  MISS:      34433
L2C PREFETCH  ACCESS:    2685025  HIT:    2627948  MISS:      57077
L2C WRITEBACK ACCESS:     139292  HIT:     139195  MISS:         97
L2C PREFETCH  REQUESTED:    1371834  ISSUED:    1371684  USEFUL:       5182  USELESS:      52272
L2C AVERAGE MISS LATENCY: 63.8414 cycles
LLC TOTAL     ACCESS:     275027  HIT:     241226  MISS:      33801
LLC LOAD      ACCESS:      35677  HIT:      27496  MISS:       8181
LLC RFO       ACCESS:      34433  HIT:      28277  MISS:       6156
LLC PREFETCH  ACCESS:     159419  HIT:     140161  MISS:      19258
LLC WRITEBACK ACCESS:      45498  HIT:      45292  MISS:        206
LLC PREFETCH  REQUESTED:          0  ISSUED:          0  USEFUL:       1253  USELESS:      16908
LLC AVERAGE MISS LATENCY: 179.518 cycles
Major fault: 0 Minor fault: 4162
CPU 0 L1D next line prefetcher final stats

DRAM Statistics
 CHANNEL 0
 RQ ROW_BUFFER_HIT:       4325  ROW_BUFFER_MISS:      29261
 DBUS_CONGESTED:      17637
 WQ ROW_BUFFER_HIT:       1306  ROW_BUFFER_MISS:      14134  FULL:          0

 AVG_CONGESTED_CYCLE: 4

CPU 0 Branch Prediction Accuracy: 94.7729% MPKI: 9.72684 Average ROB Occupancy at Mispredict: 54.1131

Branch types
NOT_BRANCH: 40695386 81.3908%
BRANCH_DIRECT_JUMP: 422107 0.844214%
BRANCH_INDIRECT: 65 0.00013%
BRANCH_CONDITIONAL: 8105006 16.21%
BRANCH_DIRECT_CALL: 374913 0.749826%
BRANCH_INDIRECT_CALL: 13657 0.027314%
BRANCH_RETURN: 388556 0.777112%
BRANCH_OTHER: 0 0%

