Initialize SIGNATURE TABLE
ST_SET: 1
ST_WAY: 256
ST_TAG_BIT: 16
ST_TAG_MASK: ffff

Initialize PATTERN TABLE
PT_SET: 512
PT_WAY: 4
SIG_DELTA_BIT: 7
C_SIG_BIT: 4
C_DELTA_BIT: 4

Initialize PREFETCH FILTER
FILTER_SET: 1024

*** ChampSim Multicore Out-of-Order Simulator ***

Warmup Instructions: 50000000
Simulation Instructions: 50000000
Number of CPUs: 1
LLC sets: 2048
LLC ways: 16
Off-chip DRAM Size: 4096 MB Channels: 1 Width: 64-bit Data Rate: 3200 MT/s

CPU 0 runs /home/tapatil/CSE240C/SA1/ChampSim-master/ipc1_public/spec_gobmk_002.champsimtrace.xz
L1I D-JOLT instruction prefetcher has been constructed!
CPU 0 L1D next line prefetcher
Heartbeat CPU 0 instructions: 10000001 cycles: 3287460 heartbeat IPC: 3.04186 cumulative IPC: 3.04186 (Simulation time: 0 hr 0 min 24 sec) 
Heartbeat CPU 0 instructions: 20000000 cycles: 6619019 heartbeat IPC: 3.0016 cumulative IPC: 3.0216 (Simulation time: 0 hr 0 min 48 sec) 
Heartbeat CPU 0 instructions: 30000000 cycles: 9956882 heartbeat IPC: 2.99593 cumulative IPC: 3.01299 (Simulation time: 0 hr 1 min 13 sec) 
Heartbeat CPU 0 instructions: 40000000 cycles: 13266290 heartbeat IPC: 3.02169 cumulative IPC: 3.01516 (Simulation time: 0 hr 1 min 38 sec) 
Heartbeat CPU 0 instructions: 50000003 cycles: 16529790 heartbeat IPC: 3.0642 cumulative IPC: 3.02484 (Simulation time: 0 hr 2 min 2 sec) 

Warmup complete CPU 0 instructions: 50000003 cycles: 16529790 (Simulation time: 0 hr 2 min 2 sec) 

Heartbeat CPU 0 instructions: 60000003 cycles: 23921907 heartbeat IPC: 1.35279 cumulative IPC: 1.35279 (Simulation time: 0 hr 2 min 22 sec) 
Heartbeat CPU 0 instructions: 70000000 cycles: 31250846 heartbeat IPC: 1.36445 cumulative IPC: 1.3586 (Simulation time: 0 hr 2 min 43 sec) 
Heartbeat CPU 0 instructions: 80000002 cycles: 38442886 heartbeat IPC: 1.39043 cumulative IPC: 1.36904 (Simulation time: 0 hr 3 min 4 sec) 
Heartbeat CPU 0 instructions: 90000003 cycles: 45968555 heartbeat IPC: 1.32879 cumulative IPC: 1.35875 (Simulation time: 0 hr 3 min 24 sec) 
Heartbeat CPU 0 instructions: 100000003 cycles: 53732040 heartbeat IPC: 1.28808 cumulative IPC: 1.344 (Simulation time: 0 hr 3 min 43 sec) 
Finished CPU 0 instructions: 50000000 cycles: 37202250 cumulative IPC: 1.344 (Simulation time: 0 hr 3 min 43 sec) 

ChampSim completed all CPUs

Region of Interest Statistics

CPU 0 cumulative IPC: 1.344 instructions: 50000000 cycles: 37202250
L1D TOTAL     ACCESS:   17617496  HIT:   17494372  MISS:     123124
L1D LOAD      ACCESS:    6654386  HIT:    6620126  MISS:      34260
L1D RFO       ACCESS:    4388005  HIT:    4345323  MISS:      42682
L1D PREFETCH  ACCESS:    6575105  HIT:    6528923  MISS:      46182
L1D WRITEBACK ACCESS:          0  HIT:          0  MISS:          0
L1D PREFETCH  REQUESTED:    6656825  ISSUED:    6589478  USEFUL:      17118  USELESS:      29247
L1D AVERAGE MISS LATENCY: 50.8177 cycles
L1I TOTAL     ACCESS:   16076057  HIT:   13757412  MISS:    2318645
L1I LOAD      ACCESS:    8885489  HIT:    8817756  MISS:      67733
L1I RFO       ACCESS:          0  HIT:          0  MISS:          0
L1I PREFETCH  ACCESS:    7190568  HIT:    4939656  MISS:    2250912
L1I WRITEBACK ACCESS:          0  HIT:          0  MISS:          0
L1I PREFETCH  REQUESTED:    7524089  ISSUED:    7257912  USEFUL:    1121796  USELESS:    1129051
L1I AVERAGE MISS LATENCY: 14.5765 cycles
L2C TOTAL     ACCESS:    3543417  HIT:    3505794  MISS:      37623
L2C LOAD      ACCESS:      97037  HIT:      83257  MISS:      13780
L2C RFO       ACCESS:      42551  HIT:      39652  MISS:       2899
L2C PREFETCH  ACCESS:    3329625  HIT:    3308850  MISS:      20775
L2C WRITEBACK ACCESS:      74204  HIT:      74035  MISS:        169
L2C PREFETCH  REQUESTED:    1689507  ISSUED:    1689501  USEFUL:       2416  USELESS:      18852
L2C AVERAGE MISS LATENCY: 125.474 cycles
LLC TOTAL     ACCESS:     104528  HIT:      71997  MISS:      32531
LLC LOAD      ACCESS:      13780  HIT:       5154  MISS:       8626
LLC RFO       ACCESS:       2899  HIT:       1270  MISS:       1629
LLC PREFETCH  ACCESS:      69750  HIT:      48048  MISS:      21702
LLC WRITEBACK ACCESS:      18099  HIT:      17525  MISS:        574
LLC PREFETCH  REQUESTED:          0  ISSUED:          0  USEFUL:       2087  USELESS:      19337
LLC AVERAGE MISS LATENCY: 182.7 cycles
Major fault: 0 Minor fault: 2781
CPU 0 L1D next line prefetcher final stats

DRAM Statistics
 CHANNEL 0
 RQ ROW_BUFFER_HIT:       2444  ROW_BUFFER_MISS:      29513
 DBUS_CONGESTED:      15330
 WQ ROW_BUFFER_HIT:        756  ROW_BUFFER_MISS:      13180  FULL:          0

 AVG_CONGESTED_CYCLE: 4

CPU 0 Branch Prediction Accuracy: 93.9974% MPKI: 10.2447 Average ROB Occupancy at Mispredict: 40.2109

Branch types
NOT_BRANCH: 41466059 82.9321%
BRANCH_DIRECT_JUMP: 464313 0.928626%
BRANCH_INDIRECT: 32 6.4e-05%
BRANCH_CONDITIONAL: 7069454 14.1389%
BRANCH_DIRECT_CALL: 499587 0.999174%
BRANCH_INDIRECT_CALL: 342 0.000684%
BRANCH_RETURN: 499906 0.999812%
BRANCH_OTHER: 0 0%

