Initialize SIGNATURE TABLE
ST_SET: 1
ST_WAY: 256
ST_TAG_BIT: 16
ST_TAG_MASK: ffff

Initialize PATTERN TABLE
PT_SET: 512
PT_WAY: 4
SIG_DELTA_BIT: 7
C_SIG_BIT: 4
C_DELTA_BIT: 4

Initialize PREFETCH FILTER
FILTER_SET: 1024

*** ChampSim Multicore Out-of-Order Simulator ***

Warmup Instructions: 50000000
Simulation Instructions: 50000000
Number of CPUs: 1
LLC sets: 2048
LLC ways: 16
Off-chip DRAM Size: 4096 MB Channels: 1 Width: 64-bit Data Rate: 3200 MT/s

CPU 0 runs /home/tapatil/CSE240C/SA1/ChampSim-master/ipc1_public/spec_gobmk_001.champsimtrace.xz
L1I D-JOLT instruction prefetcher has been constructed!
CPU 0 L1D next line prefetcher
Heartbeat CPU 0 instructions: 10000003 cycles: 3509090 heartbeat IPC: 2.84974 cumulative IPC: 2.84974 (Simulation time: 0 hr 0 min 25 sec) 
Heartbeat CPU 0 instructions: 20000002 cycles: 6990948 heartbeat IPC: 2.87203 cumulative IPC: 2.86084 (Simulation time: 0 hr 0 min 50 sec) 
Heartbeat CPU 0 instructions: 30000002 cycles: 10509774 heartbeat IPC: 2.84186 cumulative IPC: 2.85449 (Simulation time: 0 hr 1 min 14 sec) 
Heartbeat CPU 0 instructions: 40000001 cycles: 14028725 heartbeat IPC: 2.84176 cumulative IPC: 2.85129 (Simulation time: 0 hr 1 min 39 sec) 
Heartbeat CPU 0 instructions: 50000001 cycles: 17568776 heartbeat IPC: 2.82482 cumulative IPC: 2.84596 (Simulation time: 0 hr 2 min 4 sec) 

Warmup complete CPU 0 instructions: 50000001 cycles: 17568776 (Simulation time: 0 hr 2 min 4 sec) 

Heartbeat CPU 0 instructions: 60000000 cycles: 26325873 heartbeat IPC: 1.14193 cumulative IPC: 1.14193 (Simulation time: 0 hr 2 min 25 sec) 
Heartbeat CPU 0 instructions: 70000002 cycles: 34723173 heartbeat IPC: 1.19086 cumulative IPC: 1.16588 (Simulation time: 0 hr 2 min 46 sec) 
Heartbeat CPU 0 instructions: 80000003 cycles: 43557887 heartbeat IPC: 1.1319 cumulative IPC: 1.15433 (Simulation time: 0 hr 3 min 7 sec) 
Heartbeat CPU 0 instructions: 90000001 cycles: 52046339 heartbeat IPC: 1.17807 cumulative IPC: 1.16017 (Simulation time: 0 hr 3 min 28 sec) 
Heartbeat CPU 0 instructions: 100000003 cycles: 60862083 heartbeat IPC: 1.13433 cumulative IPC: 1.15491 (Simulation time: 0 hr 3 min 50 sec) 
Finished CPU 0 instructions: 50000002 cycles: 43293307 cumulative IPC: 1.15491 (Simulation time: 0 hr 3 min 50 sec) 

ChampSim completed all CPUs

Region of Interest Statistics

CPU 0 cumulative IPC: 1.15491 instructions: 50000002 cycles: 43293307
L1D TOTAL     ACCESS:   17979508  HIT:   17600008  MISS:     379500
L1D LOAD      ACCESS:    7208762  HIT:    7073426  MISS:     135336
L1D RFO       ACCESS:    3701162  HIT:    3596599  MISS:     104563
L1D PREFETCH  ACCESS:    7069584  HIT:    6929983  MISS:     139601
L1D WRITEBACK ACCESS:          0  HIT:          0  MISS:          0
L1D PREFETCH  REQUESTED:    7214076  ISSUED:    7131350  USEFUL:      44917  USELESS:      94690
L1D AVERAGE MISS LATENCY: 33.59 cycles
L1I TOTAL     ACCESS:   14096427  HIT:   12491032  MISS:    1605395
L1I LOAD      ACCESS:    8972437  HIT:    8926066  MISS:      46371
L1I RFO       ACCESS:          0  HIT:          0  MISS:          0
L1I PREFETCH  ACCESS:    5123990  HIT:    3564966  MISS:    1559024
L1I WRITEBACK ACCESS:          0  HIT:          0  MISS:          0
L1I PREFETCH  REQUESTED:    5307311  ISSUED:    5173630  USEFUL:     798129  USELESS:     760856
L1I AVERAGE MISS LATENCY: 15.2468 cycles
L2C TOTAL     ACCESS:    2890192  HIT:    2762671  MISS:     127521
L2C LOAD      ACCESS:     154526  HIT:     118640  MISS:      35886
L2C RFO       ACCESS:     104208  HIT:      69921  MISS:      34287
L2C PREFETCH  ACCESS:    2492165  HIT:    2434901  MISS:      57264
L2C WRITEBACK ACCESS:     139293  HIT:     139209  MISS:         84
L2C PREFETCH  REQUESTED:    1318934  ISSUED:    1318817  USEFUL:       5375  USELESS:      52225
L2C AVERAGE MISS LATENCY: 63.5058 cycles
LLC TOTAL     ACCESS:     270135  HIT:     236509  MISS:      33626
LLC LOAD      ACCESS:      35883  HIT:      27704  MISS:       8179
LLC RFO       ACCESS:      34287  HIT:      28162  MISS:       6125
LLC PREFETCH  ACCESS:     154672  HIT:     135559  MISS:      19113
LLC WRITEBACK ACCESS:      45293  HIT:      45084  MISS:        209
LLC PREFETCH  REQUESTED:          0  ISSUED:          0  USEFUL:       1294  USELESS:      16709
LLC AVERAGE MISS LATENCY: 178.971 cycles
Major fault: 0 Minor fault: 4162
CPU 0 L1D next line prefetcher final stats

DRAM Statistics
 CHANNEL 0
 RQ ROW_BUFFER_HIT:       4256  ROW_BUFFER_MISS:      29155
 DBUS_CONGESTED:      17711
 WQ ROW_BUFFER_HIT:       1380  ROW_BUFFER_MISS:      14022  FULL:          0

 AVG_CONGESTED_CYCLE: 4

CPU 0 Branch Prediction Accuracy: 94.7729% MPKI: 9.72684 Average ROB Occupancy at Mispredict: 54.2116

Branch types
NOT_BRANCH: 40695383 81.3908%
BRANCH_DIRECT_JUMP: 422107 0.844214%
BRANCH_INDIRECT: 65 0.00013%
BRANCH_CONDITIONAL: 8105006 16.21%
BRANCH_DIRECT_CALL: 374913 0.749826%
BRANCH_INDIRECT_CALL: 13657 0.027314%
BRANCH_RETURN: 388556 0.777112%
BRANCH_OTHER: 0 0%

