Initialize SIGNATURE TABLE
ST_SET: 1
ST_WAY: 256
ST_TAG_BIT: 16
ST_TAG_MASK: ffff

Initialize PATTERN TABLE
PT_SET: 512
PT_WAY: 4
SIG_DELTA_BIT: 7
C_SIG_BIT: 4
C_DELTA_BIT: 4

Initialize PREFETCH FILTER
FILTER_SET: 1024

*** ChampSim Multicore Out-of-Order Simulator ***

Warmup Instructions: 50000000
Simulation Instructions: 50000000
Number of CPUs: 1
LLC sets: 2048
LLC ways: 16
Off-chip DRAM Size: 4096 MB Channels: 1 Width: 64-bit Data Rate: 3200 MT/s

CPU 0 runs /home/tapatil/CSE240C/SA1/ChampSim-master/ipc1_public/spec_gobmk_001.champsimtrace.xz
L1I D-JOLT instruction prefetcher has been constructed!
CPU 0 L1D next line prefetcher
Heartbeat CPU 0 instructions: 10000003 cycles: 3508320 heartbeat IPC: 2.85037 cumulative IPC: 2.85037 (Simulation time: 0 hr 0 min 25 sec) 
Heartbeat CPU 0 instructions: 20000002 cycles: 6988460 heartbeat IPC: 2.87345 cumulative IPC: 2.86186 (Simulation time: 0 hr 0 min 50 sec) 
Heartbeat CPU 0 instructions: 30000002 cycles: 10507283 heartbeat IPC: 2.84186 cumulative IPC: 2.85516 (Simulation time: 0 hr 1 min 15 sec) 
Heartbeat CPU 0 instructions: 40000001 cycles: 14026186 heartbeat IPC: 2.84179 cumulative IPC: 2.85181 (Simulation time: 0 hr 1 min 39 sec) 
Heartbeat CPU 0 instructions: 50000001 cycles: 17566271 heartbeat IPC: 2.82479 cumulative IPC: 2.84636 (Simulation time: 0 hr 2 min 4 sec) 

Warmup complete CPU 0 instructions: 50000001 cycles: 17566271 (Simulation time: 0 hr 2 min 4 sec) 

Heartbeat CPU 0 instructions: 60000000 cycles: 26325602 heartbeat IPC: 1.14164 cumulative IPC: 1.14164 (Simulation time: 0 hr 2 min 25 sec) 
Heartbeat CPU 0 instructions: 70000002 cycles: 34722069 heartbeat IPC: 1.19098 cumulative IPC: 1.16579 (Simulation time: 0 hr 2 min 46 sec) 
Heartbeat CPU 0 instructions: 80000003 cycles: 43549347 heartbeat IPC: 1.13285 cumulative IPC: 1.1546 (Simulation time: 0 hr 3 min 7 sec) 
Heartbeat CPU 0 instructions: 90000001 cycles: 52038742 heartbeat IPC: 1.17794 cumulative IPC: 1.16035 (Simulation time: 0 hr 3 min 28 sec) 
Heartbeat CPU 0 instructions: 100000003 cycles: 60847725 heartbeat IPC: 1.13521 cumulative IPC: 1.15523 (Simulation time: 0 hr 3 min 49 sec) 
Finished CPU 0 instructions: 50000002 cycles: 43281454 cumulative IPC: 1.15523 (Simulation time: 0 hr 3 min 49 sec) 

ChampSim completed all CPUs

Region of Interest Statistics

CPU 0 cumulative IPC: 1.15523 instructions: 50000002 cycles: 43281454
L1D TOTAL     ACCESS:   17977569  HIT:   17598069  MISS:     379500
L1D LOAD      ACCESS:    7207760  HIT:    7072750  MISS:     135010
L1D RFO       ACCESS:    3700875  HIT:    3596282  MISS:     104593
L1D PREFETCH  ACCESS:    7068934  HIT:    6929037  MISS:     139897
L1D WRITEBACK ACCESS:          0  HIT:          0  MISS:          0
L1D PREFETCH  REQUESTED:    7213108  ISSUED:    7130360  USEFUL:      45225  USELESS:      94678
L1D AVERAGE MISS LATENCY: 33.8593 cycles
L1I TOTAL     ACCESS:   14099118  HIT:   12497292  MISS:    1601826
L1I LOAD      ACCESS:    8970098  HIT:    8924603  MISS:      45495
L1I RFO       ACCESS:          0  HIT:          0  MISS:          0
L1I PREFETCH  ACCESS:    5129020  HIT:    3572689  MISS:    1556331
L1I WRITEBACK ACCESS:          0  HIT:          0  MISS:          0
L1I PREFETCH  REQUESTED:    5289622  ISSUED:    5182820  USEFUL:     786746  USELESS:     769567
L1I AVERAGE MISS LATENCY: 15.2532 cycles
L2C TOTAL     ACCESS:    2878396  HIT:    2750789  MISS:     127607
L2C LOAD      ACCESS:     153837  HIT:     118122  MISS:      35715
L2C RFO       ACCESS:     104237  HIT:      69855  MISS:      34382
L2C PREFETCH  ACCESS:    2481027  HIT:    2423614  MISS:      57413
L2C WRITEBACK ACCESS:     139295  HIT:     139198  MISS:         97
L2C PREFETCH  REQUESTED:    1306259  ISSUED:    1306197  USEFUL:       5394  USELESS:      52303
L2C AVERAGE MISS LATENCY: 64.2751 cycles
LLC TOTAL     ACCESS:     273155  HIT:     238938  MISS:      34217
LLC LOAD      ACCESS:      35715  HIT:      27536  MISS:       8179
LLC RFO       ACCESS:      34382  HIT:      27912  MISS:       6470
LLC PREFETCH  ACCESS:     157651  HIT:     138311  MISS:      19340
LLC WRITEBACK ACCESS:      45407  HIT:      45179  MISS:        228
LLC PREFETCH  REQUESTED:          0  ISSUED:          0  USEFUL:       1295  USELESS:      17008
LLC AVERAGE MISS LATENCY: 179.758 cycles
Major fault: 0 Minor fault: 4161
CPU 0 L1D next line prefetcher final stats

DRAM Statistics
 CHANNEL 0
 RQ ROW_BUFFER_HIT:       4474  ROW_BUFFER_MISS:      29513
 DBUS_CONGESTED:      17998
 WQ ROW_BUFFER_HIT:       1412  ROW_BUFFER_MISS:      14300  FULL:          0

 AVG_CONGESTED_CYCLE: 4

CPU 0 Branch Prediction Accuracy: 94.7729% MPKI: 9.72684 Average ROB Occupancy at Mispredict: 54.236

Branch types
NOT_BRANCH: 40695385 81.3908%
BRANCH_DIRECT_JUMP: 422107 0.844214%
BRANCH_INDIRECT: 65 0.00013%
BRANCH_CONDITIONAL: 8105006 16.21%
BRANCH_DIRECT_CALL: 374913 0.749826%
BRANCH_INDIRECT_CALL: 13657 0.027314%
BRANCH_RETURN: 388556 0.777112%
BRANCH_OTHER: 0 0%

