Initialize SIGNATURE TABLE
ST_SET: 1
ST_WAY: 256
ST_TAG_BIT: 16
ST_TAG_MASK: ffff

Initialize PATTERN TABLE
PT_SET: 512
PT_WAY: 4
SIG_DELTA_BIT: 7
C_SIG_BIT: 4
C_DELTA_BIT: 4

Initialize PREFETCH FILTER
FILTER_SET: 1024

*** ChampSim Multicore Out-of-Order Simulator ***

Warmup Instructions: 50000000
Simulation Instructions: 50000000
Number of CPUs: 1
LLC sets: 2048
LLC ways: 16
Off-chip DRAM Size: 4096 MB Channels: 1 Width: 64-bit Data Rate: 3200 MT/s

CPU 0 runs /home/tapatil/CSE240C/SA1/ChampSim-master/ipc1_public/client_004.champsimtrace.xz
L1I D-JOLT instruction prefetcher has been constructed!
CPU 0 L1D next line prefetcher
Heartbeat CPU 0 instructions: 10000000 cycles: 3592644 heartbeat IPC: 2.78347 cumulative IPC: 2.78347 (Simulation time: 0 hr 0 min 28 sec) 
Heartbeat CPU 0 instructions: 20000003 cycles: 7057088 heartbeat IPC: 2.88647 cumulative IPC: 2.83403 (Simulation time: 0 hr 0 min 55 sec) 
Heartbeat CPU 0 instructions: 30000000 cycles: 10647610 heartbeat IPC: 2.78511 cumulative IPC: 2.81753 (Simulation time: 0 hr 1 min 23 sec) 
Heartbeat CPU 0 instructions: 40000003 cycles: 14328154 heartbeat IPC: 2.71699 cumulative IPC: 2.79171 (Simulation time: 0 hr 1 min 51 sec) 
Heartbeat CPU 0 instructions: 50000001 cycles: 17847290 heartbeat IPC: 2.84161 cumulative IPC: 2.80155 (Simulation time: 0 hr 2 min 20 sec) 

Warmup complete CPU 0 instructions: 50000001 cycles: 17847290 (Simulation time: 0 hr 2 min 20 sec) 

Heartbeat CPU 0 instructions: 60000002 cycles: 25873448 heartbeat IPC: 1.24593 cumulative IPC: 1.24593 (Simulation time: 0 hr 2 min 44 sec) 
Heartbeat CPU 0 instructions: 70000001 cycles: 33899234 heartbeat IPC: 1.24598 cumulative IPC: 1.24595 (Simulation time: 0 hr 3 min 11 sec) 
Heartbeat CPU 0 instructions: 80000002 cycles: 42917083 heartbeat IPC: 1.10891 cumulative IPC: 1.19666 (Simulation time: 0 hr 3 min 36 sec) 
Heartbeat CPU 0 instructions: 90000000 cycles: 51245977 heartbeat IPC: 1.20064 cumulative IPC: 1.19765 (Simulation time: 0 hr 4 min 2 sec) 
Heartbeat CPU 0 instructions: 100000001 cycles: 59422756 heartbeat IPC: 1.22298 cumulative IPC: 1.20263 (Simulation time: 0 hr 4 min 27 sec) 
Finished CPU 0 instructions: 50000000 cycles: 41575466 cumulative IPC: 1.20263 (Simulation time: 0 hr 4 min 27 sec) 

ChampSim completed all CPUs

Region of Interest Statistics

CPU 0 cumulative IPC: 1.20263 instructions: 50000000 cycles: 41575466
L1D TOTAL     ACCESS:   21962106  HIT:   21073129  MISS:     888977
L1D LOAD      ACCESS:    8722201  HIT:    8326334  MISS:     395867
L1D RFO       ACCESS:    4811321  HIT:    4689900  MISS:     121421
L1D PREFETCH  ACCESS:    8428584  HIT:    8056895  MISS:     371689
L1D WRITEBACK ACCESS:          0  HIT:          0  MISS:          0
L1D PREFETCH  REQUESTED:    8761546  ISSUED:    8601900  USEFUL:     133169  USELESS:     238528
L1D AVERAGE MISS LATENCY: 29.4672 cycles
L1I TOTAL     ACCESS:   13604555  HIT:   12580525  MISS:    1024030
L1I LOAD      ACCESS:    9399333  HIT:    9253990  MISS:     145343
L1I RFO       ACCESS:          0  HIT:          0  MISS:          0
L1I PREFETCH  ACCESS:    4205222  HIT:    3326535  MISS:     878687
L1I WRITEBACK ACCESS:          0  HIT:          0  MISS:          0
L1I PREFETCH  REQUESTED:    4622096  ISSUED:    4532320  USEFUL:     505628  USELESS:     373118
L1I AVERAGE MISS LATENCY: 22.3126 cycles
L2C TOTAL     ACCESS:    2848852  HIT:    2552974  MISS:     295878
L2C LOAD      ACCESS:     509046  HIT:     418964  MISS:      90082
L2C RFO       ACCESS:     117383  HIT:      44961  MISS:      72422
L2C PREFETCH  ACCESS:    2000399  HIT:    1867721  MISS:     132678
L2C WRITEBACK ACCESS:     222024  HIT:     221328  MISS:        696
L2C PREFETCH  REQUESTED:    1551836  ISSUED:    1551172  USEFUL:      29091  USELESS:     103064
L2C AVERAGE MISS LATENCY: 75.4665 cycles
LLC TOTAL     ACCESS:     691593  HIT:     562414  MISS:     129179
LLC LOAD      ACCESS:      90059  HIT:      60573  MISS:      29486
LLC RFO       ACCESS:      72420  HIT:      41979  MISS:      30441
LLC PREFETCH  ACCESS:     427668  HIT:     358627  MISS:      69041
LLC WRITEBACK ACCESS:     101446  HIT:     101235  MISS:        211
LLC PREFETCH  REQUESTED:          0  ISSUED:          0  USEFUL:      25560  USELESS:      45522
LLC AVERAGE MISS LATENCY: 166.698 cycles
Major fault: 0 Minor fault: 3983
CPU 0 L1D next line prefetcher final stats

DRAM Statistics
 CHANNEL 0
 RQ ROW_BUFFER_HIT:      30714  ROW_BUFFER_MISS:      98239
 DBUS_CONGESTED:      53945
 WQ ROW_BUFFER_HIT:       9897  ROW_BUFFER_MISS:      33206  FULL:          0

 AVG_CONGESTED_CYCLE: 5

CPU 0 Branch Prediction Accuracy: 94.1242% MPKI: 11.6089 Average ROB Occupancy at Mispredict: 55.5322

Branch types
NOT_BRANCH: 40121057 80.2421%
BRANCH_DIRECT_JUMP: 644555 1.28911%
BRANCH_INDIRECT: 201946 0.403892%
BRANCH_CONDITIONAL: 7003556 14.0071%
BRANCH_DIRECT_CALL: 564820 1.12964%
BRANCH_INDIRECT_CALL: 445012 0.890024%
BRANCH_RETURN: 1018716 2.03743%
BRANCH_OTHER: 0 0%

