Initialize SIGNATURE TABLE
ST_SET: 1
ST_WAY: 256
ST_TAG_BIT: 16
ST_TAG_MASK: ffff

Initialize PATTERN TABLE
PT_SET: 512
PT_WAY: 4
SIG_DELTA_BIT: 7
C_SIG_BIT: 4
C_DELTA_BIT: 4

Initialize PREFETCH FILTER
FILTER_SET: 1024

*** ChampSim Multicore Out-of-Order Simulator ***

Warmup Instructions: 50000000
Simulation Instructions: 50000000
Number of CPUs: 1
LLC sets: 2048
LLC ways: 16
Off-chip DRAM Size: 4096 MB Channels: 1 Width: 64-bit Data Rate: 3200 MT/s

CPU 0 runs /home/tapatil/CSE240C/SA1/ChampSim-master/ipc1_public/spec_gobmk_001.champsimtrace.xz
L1I D-JOLT instruction prefetcher has been constructed!
CPU 0 L1D next line prefetcher
Heartbeat CPU 0 instructions: 10000003 cycles: 3510593 heartbeat IPC: 2.84852 cumulative IPC: 2.84852 (Simulation time: 0 hr 0 min 25 sec) 
Heartbeat CPU 0 instructions: 20000002 cycles: 6992054 heartbeat IPC: 2.87236 cumulative IPC: 2.86039 (Simulation time: 0 hr 0 min 49 sec) 
Heartbeat CPU 0 instructions: 30000002 cycles: 10510885 heartbeat IPC: 2.84185 cumulative IPC: 2.85418 (Simulation time: 0 hr 1 min 14 sec) 
Heartbeat CPU 0 instructions: 40000001 cycles: 14029892 heartbeat IPC: 2.84171 cumulative IPC: 2.85106 (Simulation time: 0 hr 1 min 39 sec) 
Heartbeat CPU 0 instructions: 50000001 cycles: 17569936 heartbeat IPC: 2.82482 cumulative IPC: 2.84577 (Simulation time: 0 hr 2 min 4 sec) 

Warmup complete CPU 0 instructions: 50000001 cycles: 17569936 (Simulation time: 0 hr 2 min 4 sec) 

Heartbeat CPU 0 instructions: 60000000 cycles: 26336762 heartbeat IPC: 1.14066 cumulative IPC: 1.14066 (Simulation time: 0 hr 2 min 25 sec) 
Heartbeat CPU 0 instructions: 70000002 cycles: 34741552 heartbeat IPC: 1.1898 cumulative IPC: 1.16471 (Simulation time: 0 hr 2 min 46 sec) 
Heartbeat CPU 0 instructions: 80000003 cycles: 43576838 heartbeat IPC: 1.13183 cumulative IPC: 1.15354 (Simulation time: 0 hr 3 min 7 sec) 
Heartbeat CPU 0 instructions: 90000001 cycles: 52069488 heartbeat IPC: 1.17749 cumulative IPC: 1.15944 (Simulation time: 0 hr 3 min 29 sec) 
Heartbeat CPU 0 instructions: 100000003 cycles: 60881574 heartbeat IPC: 1.13481 cumulative IPC: 1.15442 (Simulation time: 0 hr 3 min 50 sec) 
Finished CPU 0 instructions: 50000002 cycles: 43311638 cumulative IPC: 1.15442 (Simulation time: 0 hr 3 min 50 sec) 

ChampSim completed all CPUs

Region of Interest Statistics

CPU 0 cumulative IPC: 1.15442 instructions: 50000002 cycles: 43311638
L1D TOTAL     ACCESS:   17979100  HIT:   17599625  MISS:     379475
L1D LOAD      ACCESS:    7208107  HIT:    7072963  MISS:     135144
L1D RFO       ACCESS:    3701532  HIT:    3596965  MISS:     104567
L1D PREFETCH  ACCESS:    7069461  HIT:    6929697  MISS:     139764
L1D WRITEBACK ACCESS:          0  HIT:          0  MISS:          0
L1D PREFETCH  REQUESTED:    7213480  ISSUED:    7130748  USEFUL:      45095  USELESS:      94675
L1D AVERAGE MISS LATENCY: 33.887 cycles
L1I TOTAL     ACCESS:   13744787  HIT:   12254065  MISS:    1490722
L1I LOAD      ACCESS:    8968698  HIT:    8919019  MISS:      49679
L1I RFO       ACCESS:          0  HIT:          0  MISS:          0
L1I PREFETCH  ACCESS:    4776089  HIT:    3335046  MISS:    1441043
L1I WRITEBACK ACCESS:          0  HIT:          0  MISS:          0
L1I PREFETCH  REQUESTED:    4925804  ISSUED:    4820519  USEFUL:     756506  USELESS:     684502
L1I AVERAGE MISS LATENCY: 15.2265 cycles
L2C TOTAL     ACCESS:    2726229  HIT:    2598378  MISS:     127851
L2C LOAD      ACCESS:     157801  HIT:     122115  MISS:      35686
L2C RFO       ACCESS:     104206  HIT:      69779  MISS:      34427
L2C PREFETCH  ACCESS:    2324934  HIT:    2267296  MISS:      57638
L2C WRITEBACK ACCESS:     139288  HIT:     139188  MISS:        100
L2C PREFETCH  REQUESTED:    1229025  ISSUED:    1228919  USEFUL:       5376  USELESS:      52575
L2C AVERAGE MISS LATENCY: 64.3301 cycles
LLC TOTAL     ACCESS:     267688  HIT:     233476  MISS:      34212
LLC LOAD      ACCESS:      35684  HIT:      27496  MISS:       8188
LLC RFO       ACCESS:      34427  HIT:      27791  MISS:       6636
LLC PREFETCH  ACCESS:     152113  HIT:     132960  MISS:      19153
LLC WRITEBACK ACCESS:      45464  HIT:      45229  MISS:        235
LLC PREFETCH  REQUESTED:          0  ISSUED:          0  USEFUL:       1308  USELESS:      16596
LLC AVERAGE MISS LATENCY: 179.413 cycles
Major fault: 0 Minor fault: 4160
CPU 0 L1D next line prefetcher final stats

DRAM Statistics
 CHANNEL 0
 RQ ROW_BUFFER_HIT:       4517  ROW_BUFFER_MISS:      29458
 DBUS_CONGESTED:      18365
 WQ ROW_BUFFER_HIT:       1516  ROW_BUFFER_MISS:      14384  FULL:          0

 AVG_CONGESTED_CYCLE: 4

CPU 0 Branch Prediction Accuracy: 94.7729% MPKI: 9.72684 Average ROB Occupancy at Mispredict: 54.1993

Branch types
NOT_BRANCH: 40695383 81.3908%
BRANCH_DIRECT_JUMP: 422107 0.844214%
BRANCH_INDIRECT: 65 0.00013%
BRANCH_CONDITIONAL: 8105005 16.21%
BRANCH_DIRECT_CALL: 374913 0.749826%
BRANCH_INDIRECT_CALL: 13657 0.027314%
BRANCH_RETURN: 388556 0.777112%
BRANCH_OTHER: 0 0%

