Initialize SIGNATURE TABLE
ST_SET: 1
ST_WAY: 256
ST_TAG_BIT: 16
ST_TAG_MASK: ffff

Initialize PATTERN TABLE
PT_SET: 512
PT_WAY: 4
SIG_DELTA_BIT: 7
C_SIG_BIT: 4
C_DELTA_BIT: 4

Initialize PREFETCH FILTER
FILTER_SET: 1024

*** ChampSim Multicore Out-of-Order Simulator ***

Warmup Instructions: 50000000
Simulation Instructions: 50000000
Number of CPUs: 1
LLC sets: 2048
LLC ways: 16
Off-chip DRAM Size: 4096 MB Channels: 1 Width: 64-bit Data Rate: 3200 MT/s

CPU 0 runs /home/tapatil/CSE240C/SA1/ChampSim-master/ipc1_public/spec_gcc_001.champsimtrace.xz
L1I D-JOLT instruction prefetcher has been constructed!
CPU 0 L1D next line prefetcher
Heartbeat CPU 0 instructions: 10000003 cycles: 3219058 heartbeat IPC: 3.1065 cumulative IPC: 3.1065 (Simulation time: 0 hr 0 min 26 sec) 
Heartbeat CPU 0 instructions: 20000002 cycles: 6463814 heartbeat IPC: 3.0819 cumulative IPC: 3.09415 (Simulation time: 0 hr 0 min 52 sec) 
Heartbeat CPU 0 instructions: 30000000 cycles: 9664858 heartbeat IPC: 3.12398 cumulative IPC: 3.10403 (Simulation time: 0 hr 1 min 18 sec) 
Heartbeat CPU 0 instructions: 40000001 cycles: 12905481 heartbeat IPC: 3.08583 cumulative IPC: 3.09946 (Simulation time: 0 hr 1 min 44 sec) 
Heartbeat CPU 0 instructions: 50000001 cycles: 16145619 heartbeat IPC: 3.08629 cumulative IPC: 3.09682 (Simulation time: 0 hr 2 min 10 sec) 

Warmup complete CPU 0 instructions: 50000001 cycles: 16145619 (Simulation time: 0 hr 2 min 10 sec) 

Heartbeat CPU 0 instructions: 60000000 cycles: 23998107 heartbeat IPC: 1.27348 cumulative IPC: 1.27348 (Simulation time: 0 hr 2 min 36 sec) 
Heartbeat CPU 0 instructions: 70000002 cycles: 31920497 heartbeat IPC: 1.26225 cumulative IPC: 1.26784 (Simulation time: 0 hr 3 min 3 sec) 
Heartbeat CPU 0 instructions: 80000000 cycles: 39457070 heartbeat IPC: 1.32686 cumulative IPC: 1.28692 (Simulation time: 0 hr 3 min 28 sec) 
Heartbeat CPU 0 instructions: 90000001 cycles: 47350772 heartbeat IPC: 1.26683 cumulative IPC: 1.28184 (Simulation time: 0 hr 3 min 54 sec) 
Heartbeat CPU 0 instructions: 100000000 cycles: 55535879 heartbeat IPC: 1.22173 cumulative IPC: 1.26935 (Simulation time: 0 hr 4 min 21 sec) 
Finished CPU 0 instructions: 50000000 cycles: 39390264 cumulative IPC: 1.26935 (Simulation time: 0 hr 4 min 21 sec) 

ChampSim completed all CPUs

Region of Interest Statistics

CPU 0 cumulative IPC: 1.26935 instructions: 50000000 cycles: 39390264
L1D TOTAL     ACCESS:   19318375  HIT:   18213217  MISS:    1105158
L1D LOAD      ACCESS:    7230677  HIT:    6751266  MISS:     479411
L1D RFO       ACCESS:    5116705  HIT:    5037009  MISS:      79696
L1D PREFETCH  ACCESS:    6970993  HIT:    6424942  MISS:     546051
L1D WRITEBACK ACCESS:          0  HIT:          0  MISS:          0
L1D PREFETCH  REQUESTED:    7274359  ISSUED:    7176542  USEFUL:     275829  USELESS:     270234
L1D AVERAGE MISS LATENCY: 25.715 cycles
L1I TOTAL     ACCESS:   14276250  HIT:   13496652  MISS:     779598
L1I LOAD      ACCESS:    9296092  HIT:    9242190  MISS:      53902
L1I RFO       ACCESS:          0  HIT:          0  MISS:          0
L1I PREFETCH  ACCESS:    4980158  HIT:    4254462  MISS:     725696
L1I WRITEBACK ACCESS:          0  HIT:          0  MISS:          0
L1I PREFETCH  REQUESTED:    5112330  ISSUED:    5103041  USEFUL:     397845  USELESS:     327909
L1I AVERAGE MISS LATENCY: 18.3299 cycles
L2C TOTAL     ACCESS:    3105248  HIT:    2851991  MISS:     253257
L2C LOAD      ACCESS:     501791  HIT:     412586  MISS:      89205
L2C RFO       ACCESS:      74994  HIT:      36606  MISS:      38388
L2C PREFETCH  ACCESS:    2274710  HIT:    2149414  MISS:     125296
L2C WRITEBACK ACCESS:     253753  HIT:     253385  MISS:        368
L2C PREFETCH  REQUESTED:    1896876  ISSUED:    1896758  USEFUL:      32723  USELESS:      92334
L2C AVERAGE MISS LATENCY: 63.0468 cycles
LLC TOTAL     ACCESS:     676344  HIT:     601767  MISS:      74577
LLC LOAD      ACCESS:      89019  HIT:      77237  MISS:      11782
LLC RFO       ACCESS:      38387  HIT:      17496  MISS:      20891
LLC PREFETCH  ACCESS:     456463  HIT:     415535  MISS:      40928
LLC WRITEBACK ACCESS:      92475  HIT:      91499  MISS:        976
LLC PREFETCH  REQUESTED:          0  ISSUED:          0  USEFUL:      13628  USELESS:      29447
LLC AVERAGE MISS LATENCY: 187.502 cycles
Major fault: 0 Minor fault: 6867
CPU 0 L1D next line prefetcher final stats

DRAM Statistics
 CHANNEL 0
 RQ ROW_BUFFER_HIT:      19640  ROW_BUFFER_MISS:      53955
 DBUS_CONGESTED:      36201
 WQ ROW_BUFFER_HIT:       4528  ROW_BUFFER_MISS:      23504  FULL:          0

 AVG_CONGESTED_CYCLE: 6

CPU 0 Branch Prediction Accuracy: 95.8872% MPKI: 9.67286 Average ROB Occupancy at Mispredict: 67.0844

Branch types
NOT_BRANCH: 38240102 76.4802%
BRANCH_DIRECT_JUMP: 653296 1.30659%
BRANCH_INDIRECT: 37098 0.074196%
BRANCH_CONDITIONAL: 8897819 17.7956%
BRANCH_DIRECT_CALL: 992620 1.98524%
BRANCH_INDIRECT_CALL: 93046 0.186092%
BRANCH_RETURN: 1085674 2.17135%
BRANCH_OTHER: 0 0%

