Initialize SIGNATURE TABLE
ST_SET: 1
ST_WAY: 256
ST_TAG_BIT: 16
ST_TAG_MASK: ffff

Initialize PATTERN TABLE
PT_SET: 512
PT_WAY: 4
SIG_DELTA_BIT: 7
C_SIG_BIT: 4
C_DELTA_BIT: 4

Initialize PREFETCH FILTER
FILTER_SET: 1024

*** ChampSim Multicore Out-of-Order Simulator ***

Warmup Instructions: 50000000
Simulation Instructions: 50000000
Number of CPUs: 1
LLC sets: 2048
LLC ways: 16
Off-chip DRAM Size: 4096 MB Channels: 1 Width: 64-bit Data Rate: 3200 MT/s

CPU 0 runs /home/tapatil/CSE240C/SA1/ChampSim-master/ipc1_public/client_003.champsimtrace.xz
L1I D-JOLT instruction prefetcher has been constructed!
CPU 0 L1D next line prefetcher
Heartbeat CPU 0 instructions: 10000000 cycles: 3478361 heartbeat IPC: 2.87492 cumulative IPC: 2.87492 (Simulation time: 0 hr 0 min 33 sec) 
Heartbeat CPU 0 instructions: 20000002 cycles: 6932537 heartbeat IPC: 2.89505 cumulative IPC: 2.88495 (Simulation time: 0 hr 1 min 5 sec) 
Heartbeat CPU 0 instructions: 30000003 cycles: 10493437 heartbeat IPC: 2.80828 cumulative IPC: 2.85893 (Simulation time: 0 hr 1 min 38 sec) 
Heartbeat CPU 0 instructions: 40000001 cycles: 14109903 heartbeat IPC: 2.76513 cumulative IPC: 2.83489 (Simulation time: 0 hr 2 min 12 sec) 
Heartbeat CPU 0 instructions: 50000003 cycles: 17654942 heartbeat IPC: 2.82084 cumulative IPC: 2.83207 (Simulation time: 0 hr 2 min 45 sec) 

Warmup complete CPU 0 instructions: 50000003 cycles: 17654942 (Simulation time: 0 hr 2 min 45 sec) 

Heartbeat CPU 0 instructions: 60000002 cycles: 23998174 heartbeat IPC: 1.57648 cumulative IPC: 1.57648 (Simulation time: 0 hr 3 min 17 sec) 
Heartbeat CPU 0 instructions: 70000001 cycles: 30083485 heartbeat IPC: 1.6433 cumulative IPC: 1.6092 (Simulation time: 0 hr 3 min 49 sec) 
Heartbeat CPU 0 instructions: 80000000 cycles: 37099972 heartbeat IPC: 1.42521 cumulative IPC: 1.54281 (Simulation time: 0 hr 4 min 19 sec) 
Heartbeat CPU 0 instructions: 90000000 cycles: 46027491 heartbeat IPC: 1.12013 cumulative IPC: 1.40981 (Simulation time: 0 hr 4 min 42 sec) 
Heartbeat CPU 0 instructions: 100000003 cycles: 56931420 heartbeat IPC: 0.917101 cumulative IPC: 1.27303 (Simulation time: 0 hr 5 min 9 sec) 
Finished CPU 0 instructions: 50000000 cycles: 39276478 cumulative IPC: 1.27303 (Simulation time: 0 hr 5 min 9 sec) 

ChampSim completed all CPUs

Region of Interest Statistics

CPU 0 cumulative IPC: 1.27303 instructions: 50000000 cycles: 39276478
L1D TOTAL     ACCESS:   17645676  HIT:   17149729  MISS:     495947
L1D LOAD      ACCESS:    6039958  HIT:    5915372  MISS:     124586
L1D RFO       ACCESS:    5946862  HIT:    5712420  MISS:     234442
L1D PREFETCH  ACCESS:    5658856  HIT:    5521937  MISS:     136919
L1D WRITEBACK ACCESS:          0  HIT:          0  MISS:          0
L1D PREFETCH  REQUESTED:    6081439  ISSUED:    5940405  USEFUL:      69039  USELESS:      67928
L1D AVERAGE MISS LATENCY: 123.326 cycles
L1I TOTAL     ACCESS:   15548102  HIT:   13752867  MISS:    1795235
L1I LOAD      ACCESS:    9484624  HIT:    9388285  MISS:      96339
L1I RFO       ACCESS:          0  HIT:          0  MISS:          0
L1I PREFETCH  ACCESS:    6063478  HIT:    4364582  MISS:    1698896
L1I WRITEBACK ACCESS:          0  HIT:          0  MISS:          0
L1I PREFETCH  REQUESTED:    6370919  ISSUED:    6205905  USEFUL:     726746  USELESS:     972215
L1I AVERAGE MISS LATENCY: 16.8079 cycles
L2C TOTAL     ACCESS:    3247915  HIT:    2845350  MISS:     402565
L2C LOAD      ACCESS:     172235  HIT:     121119  MISS:      51116
L2C RFO       ACCESS:     232319  HIT:      25094  MISS:     207225
L2C PREFETCH  ACCESS:    2574053  HIT:    2430887  MISS:     143166
L2C WRITEBACK ACCESS:     269308  HIT:     268250  MISS:       1058
L2C PREFETCH  REQUESTED:    1543148  ISSUED:    1542996  USEFUL:      15739  USELESS:     127295
L2C AVERAGE MISS LATENCY: 163.317 cycles
LLC TOTAL     ACCESS:     990867  HIT:     704084  MISS:     286783
LLC LOAD      ACCESS:      51042  HIT:      35437  MISS:      15605
LLC RFO       ACCESS:     207211  HIT:      34567  MISS:     172644
LLC PREFETCH  ACCESS:     507589  HIT:     409457  MISS:      98132
LLC WRITEBACK ACCESS:     225025  HIT:     224623  MISS:        402
LLC PREFETCH  REQUESTED:          0  ISSUED:          0  USEFUL:      12231  USELESS:      85632
LLC AVERAGE MISS LATENCY: 229.193 cycles
Major fault: 0 Minor fault: 5045
CPU 0 L1D next line prefetcher final stats

DRAM Statistics
 CHANNEL 0
 RQ ROW_BUFFER_HIT:      98949  ROW_BUFFER_MISS:     187423
 DBUS_CONGESTED:     254883
 WQ ROW_BUFFER_HIT:      58976  ROW_BUFFER_MISS:     120043  FULL:          0

 AVG_CONGESTED_CYCLE: 6

CPU 0 Branch Prediction Accuracy: 98.6631% MPKI: 2.66884 Average ROB Occupancy at Mispredict: 76.8215

Branch types
NOT_BRANCH: 40018777 80.0376%
BRANCH_DIRECT_JUMP: 370861 0.741722%
BRANCH_INDIRECT: 83253 0.166506%
BRANCH_CONDITIONAL: 7877436 15.7549%
BRANCH_DIRECT_CALL: 722315 1.44463%
BRANCH_INDIRECT_CALL: 101901 0.203802%
BRANCH_RETURN: 825355 1.65071%
BRANCH_OTHER: 0 0%

