Initialize SIGNATURE TABLE
ST_SET: 1
ST_WAY: 256
ST_TAG_BIT: 16
ST_TAG_MASK: ffff

Initialize PATTERN TABLE
PT_SET: 512
PT_WAY: 4
SIG_DELTA_BIT: 7
C_SIG_BIT: 4
C_DELTA_BIT: 4

Initialize PREFETCH FILTER
FILTER_SET: 1024

*** ChampSim Multicore Out-of-Order Simulator ***

Warmup Instructions: 50000000
Simulation Instructions: 50000000
Number of CPUs: 1
LLC sets: 2048
LLC ways: 16
Off-chip DRAM Size: 4096 MB Channels: 1 Width: 64-bit Data Rate: 3200 MT/s

CPU 0 runs /home/tapatil/CSE240C/SA1/ChampSim-master/ipc1_public/client_001.champsimtrace.xz
CPU 0 EPI prefetcher
CPU 0 L1D next line prefetcher
Heartbeat CPU 0 instructions: 10000003 cycles: 3410776 heartbeat IPC: 2.93189 cumulative IPC: 2.93189 (Simulation time: 0 hr 0 min 36 sec) 
Heartbeat CPU 0 instructions: 20000001 cycles: 7119374 heartbeat IPC: 2.69644 cumulative IPC: 2.80924 (Simulation time: 0 hr 1 min 14 sec) 
Heartbeat CPU 0 instructions: 30000001 cycles: 10482466 heartbeat IPC: 2.97345 cumulative IPC: 2.86192 (Simulation time: 0 hr 1 min 49 sec) 
Heartbeat CPU 0 instructions: 40000003 cycles: 14352491 heartbeat IPC: 2.58396 cumulative IPC: 2.78697 (Simulation time: 0 hr 2 min 26 sec) 
Heartbeat CPU 0 instructions: 50000003 cycles: 17649889 heartbeat IPC: 3.03269 cumulative IPC: 2.83288 (Simulation time: 0 hr 3 min 1 sec) 

Warmup complete CPU 0 instructions: 50000003 cycles: 17649889 (Simulation time: 0 hr 3 min 1 sec) 

Heartbeat CPU 0 instructions: 60000000 cycles: 26675559 heartbeat IPC: 1.10795 cumulative IPC: 1.10795 (Simulation time: 0 hr 3 min 38 sec) 
Heartbeat CPU 0 instructions: 70000000 cycles: 32998583 heartbeat IPC: 1.58152 cumulative IPC: 1.30304 (Simulation time: 0 hr 4 min 13 sec) 
Heartbeat CPU 0 instructions: 80000002 cycles: 42317405 heartbeat IPC: 1.0731 cumulative IPC: 1.21617 (Simulation time: 0 hr 4 min 56 sec) 
Heartbeat CPU 0 instructions: 90000000 cycles: 48497774 heartbeat IPC: 1.61803 cumulative IPC: 1.29669 (Simulation time: 0 hr 5 min 29 sec) 
Heartbeat CPU 0 instructions: 100000002 cycles: 57364723 heartbeat IPC: 1.12778 cumulative IPC: 1.25898 (Simulation time: 0 hr 6 min 2 sec) 
Finished CPU 0 instructions: 50000003 cycles: 39714835 cumulative IPC: 1.25898 (Simulation time: 0 hr 6 min 2 sec) 

ChampSim completed all CPUs

Region of Interest Statistics

CPU 0 cumulative IPC: 1.25898 instructions: 50000003 cycles: 39714835
L1D TOTAL     ACCESS:   21231223  HIT:   20394801  MISS:     836422
L1D LOAD      ACCESS:    8816877  HIT:    8421979  MISS:     394898
L1D RFO       ACCESS:    4041167  HIT:    3982163  MISS:      59004
L1D PREFETCH  ACCESS:    8373179  HIT:    7990659  MISS:     382520
L1D WRITEBACK ACCESS:          0  HIT:          0  MISS:          0
L1D PREFETCH  REQUESTED:    8862177  ISSUED:    8552675  USEFUL:     129475  USELESS:     253018
L1D AVERAGE MISS LATENCY: 48.0183 cycles
L1I TOTAL     ACCESS:   35576652  HIT:   35093240  MISS:     483412
L1I LOAD      ACCESS:    8924819  HIT:    8914035  MISS:      10784
L1I RFO       ACCESS:          0  HIT:          0  MISS:          0
L1I PREFETCH  ACCESS:   26651833  HIT:   26179205  MISS:     472628
L1I WRITEBACK ACCESS:          0  HIT:          0  MISS:          0
L1I PREFETCH  REQUESTED:   33489344  ISSUED:   33489344  USEFUL:     315899  USELESS:     156682
L1I AVERAGE MISS LATENCY: 21.7428 cycles
L2C TOTAL     ACCESS:    2021712  HIT:    1715024  MISS:     306688
L2C LOAD      ACCESS:     382500  HIT:     270013  MISS:     112487
L2C RFO       ACCESS:      58257  HIT:      21260  MISS:      36997
L2C PREFETCH  ACCESS:    1391368  HIT:    1234401  MISS:     156967
L2C WRITEBACK ACCESS:     189587  HIT:     189350  MISS:        237
L2C PREFETCH  REQUESTED:    1742977  ISSUED:    1737738  USEFUL:      14070  USELESS:     141789
L2C AVERAGE MISS LATENCY: 107.299 cycles
LLC TOTAL     ACCESS:     788499  HIT:     590209  MISS:     198290
LLC LOAD      ACCESS:     112158  HIT:      70546  MISS:      41612
LLC RFO       ACCESS:      36996  HIT:       8972  MISS:      28024
LLC PREFETCH  ACCESS:     533168  HIT:     405203  MISS:     127965
LLC WRITEBACK ACCESS:     106177  HIT:     105488  MISS:        689
LLC PREFETCH  REQUESTED:          0  ISSUED:          0  USEFUL:      28943  USELESS:     100425
LLC AVERAGE MISS LATENCY: 191.459 cycles
Major fault: 0 Minor fault: 3453
CPU 0 L1I EPI prefetcher final stats
CPU 0 L1D next line prefetcher final stats

DRAM Statistics
 CHANNEL 0
 RQ ROW_BUFFER_HIT:      47170  ROW_BUFFER_MISS:     150422
 DBUS_CONGESTED:     118299
 WQ ROW_BUFFER_HIT:      15311  ROW_BUFFER_MISS:      65644  FULL:          0

 AVG_CONGESTED_CYCLE: 5

CPU 0 Branch Prediction Accuracy: 97.9037% MPKI: 3.63418 Average ROB Occupancy at Mispredict: 87.1593

Branch types
NOT_BRANCH: 41331383 82.6628%
BRANCH_DIRECT_JUMP: 455615 0.91123%
BRANCH_INDIRECT: 20390 0.04078%
BRANCH_CONDITIONAL: 6745374 13.4907%
BRANCH_DIRECT_CALL: 494532 0.989064%
BRANCH_INDIRECT_CALL: 228815 0.45763%
BRANCH_RETURN: 723560 1.44712%
BRANCH_OTHER: 0 0%

