Initialize SIGNATURE TABLE
ST_SET: 1
ST_WAY: 256
ST_TAG_BIT: 16
ST_TAG_MASK: ffff

Initialize PATTERN TABLE
PT_SET: 512
PT_WAY: 4
SIG_DELTA_BIT: 7
C_SIG_BIT: 4
C_DELTA_BIT: 4

Initialize PREFETCH FILTER
FILTER_SET: 1024

*** ChampSim Multicore Out-of-Order Simulator ***

Warmup Instructions: 50000000
Simulation Instructions: 50000000
Number of CPUs: 1
LLC sets: 2048
LLC ways: 16
Off-chip DRAM Size: 4096 MB Channels: 1 Width: 64-bit Data Rate: 3200 MT/s

CPU 0 runs /home/tapatil/CSE240C/SA1/ChampSim-master/ipc1_public/client_006.champsimtrace.xz
L1I D-JOLT instruction prefetcher has been constructed!
CPU 0 L1D next line prefetcher
Heartbeat CPU 0 instructions: 10000003 cycles: 4267369 heartbeat IPC: 2.34336 cumulative IPC: 2.34336 (Simulation time: 0 hr 0 min 35 sec) 
Heartbeat CPU 0 instructions: 20000000 cycles: 8307505 heartbeat IPC: 2.47516 cumulative IPC: 2.40746 (Simulation time: 0 hr 1 min 8 sec) 
Heartbeat CPU 0 instructions: 30000003 cycles: 11371780 heartbeat IPC: 3.26342 cumulative IPC: 2.63811 (Simulation time: 0 hr 1 min 36 sec) 
Heartbeat CPU 0 instructions: 40000000 cycles: 14717136 heartbeat IPC: 2.98922 cumulative IPC: 2.71792 (Simulation time: 0 hr 2 min 5 sec) 
Heartbeat CPU 0 instructions: 50000003 cycles: 18821835 heartbeat IPC: 2.43623 cumulative IPC: 2.65649 (Simulation time: 0 hr 2 min 38 sec) 

Warmup complete CPU 0 instructions: 50000003 cycles: 18821835 (Simulation time: 0 hr 2 min 38 sec) 

Heartbeat CPU 0 instructions: 60000001 cycles: 26691815 heartbeat IPC: 1.27065 cumulative IPC: 1.27065 (Simulation time: 0 hr 3 min 6 sec) 
Heartbeat CPU 0 instructions: 70000003 cycles: 36398410 heartbeat IPC: 1.03023 cumulative IPC: 1.13788 (Simulation time: 0 hr 3 min 37 sec) 
Heartbeat CPU 0 instructions: 80000002 cycles: 44719907 heartbeat IPC: 1.20171 cumulative IPC: 1.15839 (Simulation time: 0 hr 4 min 5 sec) 
Heartbeat CPU 0 instructions: 90000003 cycles: 52548492 heartbeat IPC: 1.27737 cumulative IPC: 1.18601 (Simulation time: 0 hr 4 min 31 sec) 
Heartbeat CPU 0 instructions: 100000001 cycles: 60725827 heartbeat IPC: 1.22289 cumulative IPC: 1.1932 (Simulation time: 0 hr 4 min 59 sec) 
Finished CPU 0 instructions: 50000002 cycles: 41903993 cumulative IPC: 1.1932 (Simulation time: 0 hr 4 min 59 sec) 

ChampSim completed all CPUs

Region of Interest Statistics

CPU 0 cumulative IPC: 1.1932 instructions: 50000002 cycles: 41903993
L1D TOTAL     ACCESS:   16597687  HIT:   15870532  MISS:     727155
L1D LOAD      ACCESS:    6368562  HIT:    5961888  MISS:     406674
L1D RFO       ACCESS:    4332308  HIT:    4289702  MISS:      42606
L1D PREFETCH  ACCESS:    5896817  HIT:    5618942  MISS:     277875
L1D WRITEBACK ACCESS:          0  HIT:          0  MISS:          0
L1D PREFETCH  REQUESTED:    6410438  ISSUED:    6229397  USEFUL:     116862  USELESS:     160887
L1D AVERAGE MISS LATENCY: 82.2924 cycles
L1I TOTAL     ACCESS:   13670135  HIT:   12466067  MISS:    1204068
L1I LOAD      ACCESS:    8473751  HIT:    8461020  MISS:      12731
L1I RFO       ACCESS:          0  HIT:          0  MISS:          0
L1I PREFETCH  ACCESS:    5196384  HIT:    4005047  MISS:    1191337
L1I WRITEBACK ACCESS:          0  HIT:          0  MISS:          0
L1I PREFETCH  REQUESTED:    5436397  ISSUED:    5332551  USEFUL:     825830  USELESS:     365423
L1I AVERAGE MISS LATENCY: 22.0299 cycles
L2C TOTAL     ACCESS:    2729942  HIT:    2177601  MISS:     552341
L2C LOAD      ACCESS:     350255  HIT:     111251  MISS:     239004
L2C RFO       ACCESS:      42331  HIT:      12370  MISS:      29961
L2C PREFETCH  ACCESS:    2161395  HIT:    1878731  MISS:     282664
L2C WRITEBACK ACCESS:     175961  HIT:     175249  MISS:        712
L2C PREFETCH  REQUESTED:    2876999  ISSUED:    2848670  USEFUL:      10976  USELESS:     272743
L2C AVERAGE MISS LATENCY: 116.632 cycles
LLC TOTAL     ACCESS:    1442263  HIT:    1044719  MISS:     397544
LLC LOAD      ACCESS:     229405  HIT:     135048  MISS:      94357
LLC RFO       ACCESS:      29960  HIT:       5164  MISS:      24796
LLC PREFETCH  ACCESS:    1048492  HIT:     770745  MISS:     277747
LLC WRITEBACK ACCESS:     134406  HIT:     133762  MISS:        644
LLC PREFETCH  REQUESTED:          0  ISSUED:          0  USEFUL:      42529  USELESS:     238902
LLC AVERAGE MISS LATENCY: 200.35 cycles
Major fault: 0 Minor fault: 10536
CPU 0 L1D next line prefetcher final stats

DRAM Statistics
 CHANNEL 0
 RQ ROW_BUFFER_HIT:     101354  ROW_BUFFER_MISS:     295524
 DBUS_CONGESTED:     228034
 WQ ROW_BUFFER_HIT:      22500  ROW_BUFFER_MISS:      92653  FULL:          0

 AVG_CONGESTED_CYCLE: 5

CPU 0 Branch Prediction Accuracy: 98.1683% MPKI: 3.13642 Average ROB Occupancy at Mispredict: 87.6824

Branch types
NOT_BRANCH: 41438060 82.8761%
BRANCH_DIRECT_JUMP: 413829 0.827658%
BRANCH_INDIRECT: 47058 0.094116%
BRANCH_CONDITIONAL: 6843835 13.6877%
BRANCH_DIRECT_CALL: 536885 1.07377%
BRANCH_INDIRECT_CALL: 90642 0.181284%
BRANCH_RETURN: 629329 1.25866%
BRANCH_OTHER: 0 0%

