Initialize SIGNATURE TABLE
ST_SET: 1
ST_WAY: 256
ST_TAG_BIT: 16
ST_TAG_MASK: ffff

Initialize PATTERN TABLE
PT_SET: 512
PT_WAY: 4
SIG_DELTA_BIT: 7
C_SIG_BIT: 4
C_DELTA_BIT: 4

Initialize PREFETCH FILTER
FILTER_SET: 1024

*** ChampSim Multicore Out-of-Order Simulator ***

Warmup Instructions: 50000000
Simulation Instructions: 50000000
Number of CPUs: 1
LLC sets: 2048
LLC ways: 16
Off-chip DRAM Size: 4096 MB Channels: 1 Width: 64-bit Data Rate: 3200 MT/s

CPU 0 runs /home/tapatil/CSE240C/SA1/ChampSim-master/ipc1_public/client_007.champsimtrace.xz
CPU 0 EPI prefetcher
CPU 0 L1D next line prefetcher
Heartbeat CPU 0 instructions: 10000001 cycles: 3641780 heartbeat IPC: 2.74591 cumulative IPC: 2.74591 (Simulation time: 0 hr 0 min 37 sec) 
Heartbeat CPU 0 instructions: 20000003 cycles: 7033272 heartbeat IPC: 2.94856 cumulative IPC: 2.84363 (Simulation time: 0 hr 1 min 11 sec) 
Heartbeat CPU 0 instructions: 30000000 cycles: 10904087 heartbeat IPC: 2.58343 cumulative IPC: 2.75126 (Simulation time: 0 hr 1 min 51 sec) 
Heartbeat CPU 0 instructions: 40000003 cycles: 15064027 heartbeat IPC: 2.40388 cumulative IPC: 2.65533 (Simulation time: 0 hr 2 min 30 sec) 
Heartbeat CPU 0 instructions: 50000002 cycles: 18468420 heartbeat IPC: 2.93738 cumulative IPC: 2.70732 (Simulation time: 0 hr 3 min 6 sec) 

Warmup complete CPU 0 instructions: 50000002 cycles: 18468420 (Simulation time: 0 hr 3 min 6 sec) 

Heartbeat CPU 0 instructions: 60000003 cycles: 25345125 heartbeat IPC: 1.45419 cumulative IPC: 1.45419 (Simulation time: 0 hr 3 min 45 sec) 
Heartbeat CPU 0 instructions: 70000003 cycles: 34188922 heartbeat IPC: 1.13074 cumulative IPC: 1.27222 (Simulation time: 0 hr 4 min 28 sec) 
Heartbeat CPU 0 instructions: 80000002 cycles: 39495005 heartbeat IPC: 1.88463 cumulative IPC: 1.42677 (Simulation time: 0 hr 4 min 57 sec) 
Heartbeat CPU 0 instructions: 90000002 cycles: 47093423 heartbeat IPC: 1.31606 cumulative IPC: 1.39738 (Simulation time: 0 hr 5 min 34 sec) 
Heartbeat CPU 0 instructions: 100000002 cycles: 56036556 heartbeat IPC: 1.11818 cumulative IPC: 1.33092 (Simulation time: 0 hr 6 min 7 sec) 
Finished CPU 0 instructions: 50000000 cycles: 37568136 cumulative IPC: 1.33092 (Simulation time: 0 hr 6 min 7 sec) 

ChampSim completed all CPUs

Region of Interest Statistics

CPU 0 cumulative IPC: 1.33092 instructions: 50000000 cycles: 37568136
L1D TOTAL     ACCESS:   21197390  HIT:   20028284  MISS:    1169106
L1D LOAD      ACCESS:    8369627  HIT:    7830375  MISS:     539252
L1D RFO       ACCESS:    4868466  HIT:    4777403  MISS:      91063
L1D PREFETCH  ACCESS:    7959297  HIT:    7420506  MISS:     538791
L1D WRITEBACK ACCESS:          0  HIT:          0  MISS:          0
L1D PREFETCH  REQUESTED:    8422107  ISSUED:    8178059  USEFUL:     158312  USELESS:     380495
L1D AVERAGE MISS LATENCY: 34.5249 cycles
L1I TOTAL     ACCESS:   28140409  HIT:   27068131  MISS:    1072278
L1I LOAD      ACCESS:    9131281  HIT:    9121376  MISS:       9905
L1I RFO       ACCESS:          0  HIT:          0  MISS:          0
L1I PREFETCH  ACCESS:   19009128  HIT:   17946755  MISS:    1062373
L1I WRITEBACK ACCESS:          0  HIT:          0  MISS:          0
L1I PREFETCH  REQUESTED:   22183750  ISSUED:   22183750  USEFUL:     852598  USELESS:     209774
L1I AVERAGE MISS LATENCY: 16.8706 cycles
L2C TOTAL     ACCESS:    3196171  HIT:    2988953  MISS:     207218
L2C LOAD      ACCESS:     519321  HIT:     450057  MISS:      69264
L2C RFO       ACCESS:      89503  HIT:      48034  MISS:      41469
L2C PREFETCH  ACCESS:    2259647  HIT:    2163284  MISS:      96363
L2C WRITEBACK ACCESS:     327700  HIT:     327578  MISS:        122
L2C PREFETCH  REQUESTED:    2511402  ISSUED:    2505696  USEFUL:       9028  USELESS:      87475
L2C AVERAGE MISS LATENCY: 126.192 cycles
LLC TOTAL     ACCESS:     948833  HIT:     780668  MISS:     168165
LLC LOAD      ACCESS:      69170  HIT:      34288  MISS:      34882
LLC RFO       ACCESS:      41469  HIT:       7060  MISS:      34409
LLC PREFETCH  ACCESS:     763776  HIT:     665203  MISS:      98573
LLC WRITEBACK ACCESS:      74418  HIT:      74117  MISS:        301
LLC PREFETCH  REQUESTED:          0  ISSUED:          0  USEFUL:      18521  USELESS:      81045
LLC AVERAGE MISS LATENCY: 184.017 cycles
Major fault: 0 Minor fault: 4406
CPU 0 L1I EPI prefetcher final stats
CPU 0 L1D next line prefetcher final stats

DRAM Statistics
 CHANNEL 0
 RQ ROW_BUFFER_HIT:      35342  ROW_BUFFER_MISS:     132512
 DBUS_CONGESTED:      93787
 WQ ROW_BUFFER_HIT:      12968  ROW_BUFFER_MISS:      45276  FULL:          0

 AVG_CONGESTED_CYCLE: 5

CPU 0 Branch Prediction Accuracy: 98.8607% MPKI: 1.8623 Average ROB Occupancy at Mispredict: 113.907

Branch types
NOT_BRANCH: 41826773 83.6535%
BRANCH_DIRECT_JUMP: 735330 1.47066%
BRANCH_INDIRECT: 269194 0.538388%
BRANCH_CONDITIONAL: 5957947 11.9159%
BRANCH_DIRECT_CALL: 368758 0.737516%
BRANCH_INDIRECT_CALL: 226975 0.45395%
BRANCH_RETURN: 614696 1.22939%
BRANCH_OTHER: 0 0%

