Initialize SIGNATURE TABLE
ST_SET: 1
ST_WAY: 256
ST_TAG_BIT: 16
ST_TAG_MASK: ffff

Initialize PATTERN TABLE
PT_SET: 512
PT_WAY: 4
SIG_DELTA_BIT: 7
C_SIG_BIT: 4
C_DELTA_BIT: 4

Initialize PREFETCH FILTER
FILTER_SET: 1024

*** ChampSim Multicore Out-of-Order Simulator ***

Warmup Instructions: 50000000
Simulation Instructions: 50000000
Number of CPUs: 1
LLC sets: 2048
LLC ways: 16
Off-chip DRAM Size: 4096 MB Channels: 1 Width: 64-bit Data Rate: 3200 MT/s

CPU 0 runs /home/tapatil/CSE240C/SA1/ChampSim-master/ipc1_public/client_005.champsimtrace.xz
L1I D-JOLT instruction prefetcher has been constructed!
CPU 0 L1D next line prefetcher
Heartbeat CPU 0 instructions: 10000001 cycles: 3291988 heartbeat IPC: 3.03768 cumulative IPC: 3.03768 (Simulation time: 0 hr 0 min 32 sec) 
Heartbeat CPU 0 instructions: 20000002 cycles: 6699053 heartbeat IPC: 2.93508 cumulative IPC: 2.9855 (Simulation time: 0 hr 1 min 4 sec) 
Heartbeat CPU 0 instructions: 30000001 cycles: 10392388 heartbeat IPC: 2.70758 cumulative IPC: 2.88673 (Simulation time: 0 hr 1 min 39 sec) 
Heartbeat CPU 0 instructions: 40000000 cycles: 14070353 heartbeat IPC: 2.71889 cumulative IPC: 2.84286 (Simulation time: 0 hr 2 min 15 sec) 
Heartbeat CPU 0 instructions: 50000001 cycles: 17344002 heartbeat IPC: 3.0547 cumulative IPC: 2.88284 (Simulation time: 0 hr 2 min 47 sec) 

Warmup complete CPU 0 instructions: 50000001 cycles: 17344002 (Simulation time: 0 hr 2 min 47 sec) 

Heartbeat CPU 0 instructions: 60000002 cycles: 25348192 heartbeat IPC: 1.24935 cumulative IPC: 1.24935 (Simulation time: 0 hr 3 min 17 sec) 
Heartbeat CPU 0 instructions: 70000003 cycles: 32756966 heartbeat IPC: 1.34975 cumulative IPC: 1.29761 (Simulation time: 0 hr 3 min 49 sec) 
Heartbeat CPU 0 instructions: 80000001 cycles: 39626053 heartbeat IPC: 1.4558 cumulative IPC: 1.34638 (Simulation time: 0 hr 4 min 26 sec) 
Heartbeat CPU 0 instructions: 90000002 cycles: 49195868 heartbeat IPC: 1.04495 cumulative IPC: 1.25581 (Simulation time: 0 hr 5 min 4 sec) 
Heartbeat CPU 0 instructions: 100000002 cycles: 57013543 heartbeat IPC: 1.27915 cumulative IPC: 1.26041 (Simulation time: 0 hr 5 min 33 sec) 
Finished CPU 0 instructions: 50000001 cycles: 39669541 cumulative IPC: 1.26041 (Simulation time: 0 hr 5 min 33 sec) 

ChampSim completed all CPUs

Region of Interest Statistics

CPU 0 cumulative IPC: 1.26041 instructions: 50000001 cycles: 39669541
L1D TOTAL     ACCESS:   19641245  HIT:   19105483  MISS:     535762
L1D LOAD      ACCESS:    6651493  HIT:    6479713  MISS:     171780
L1D RFO       ACCESS:    6790302  HIT:    6605583  MISS:     184719
L1D PREFETCH  ACCESS:    6199450  HIT:    6020187  MISS:     179263
L1D WRITEBACK ACCESS:          0  HIT:          0  MISS:          0
L1D PREFETCH  REQUESTED:    6675322  ISSUED:    6305840  USEFUL:      59238  USELESS:     119913
L1D AVERAGE MISS LATENCY: 95.0432 cycles
L1I TOTAL     ACCESS:   18290136  HIT:   15611671  MISS:    2678465
L1I LOAD      ACCESS:    9368410  HIT:    9214484  MISS:     153926
L1I RFO       ACCESS:          0  HIT:          0  MISS:          0
L1I PREFETCH  ACCESS:    8921726  HIT:    6397187  MISS:    2524539
L1I WRITEBACK ACCESS:          0  HIT:          0  MISS:          0
L1I PREFETCH  REQUESTED:    9491709  ISSUED:    9152400  USEFUL:    1021410  USELESS:    1503062
L1I AVERAGE MISS LATENCY: 16.6126 cycles
L2C TOTAL     ACCESS:    4538055  HIT:    4138178  MISS:     399877
L2C LOAD      ACCESS:     291030  HIT:     190713  MISS:     100317
L2C RFO       ACCESS:     180926  HIT:      31345  MISS:     149581
L2C PREFETCH  ACCESS:    3813024  HIT:    3664342  MISS:     148682
L2C WRITEBACK ACCESS:     253075  HIT:     251778  MISS:       1297
L2C PREFETCH  REQUESTED:    2083637  ISSUED:    2083451  USEFUL:      20254  USELESS:     127502
L2C AVERAGE MISS LATENCY: 124.995 cycles
LLC TOTAL     ACCESS:     954225  HIT:     654736  MISS:     299489
LLC LOAD      ACCESS:     100303  HIT:      52691  MISS:      47612
LLC RFO       ACCESS:     149578  HIT:      15625  MISS:     133953
LLC PREFETCH  ACCESS:     504076  HIT:     386985  MISS:     117091
LLC WRITEBACK ACCESS:     200268  HIT:     199435  MISS:        833
LLC PREFETCH  REQUESTED:          0  ISSUED:          0  USEFUL:      26520  USELESS:      89200
LLC AVERAGE MISS LATENCY: 166.763 cycles
Major fault: 0 Minor fault: 6090
CPU 0 L1D next line prefetcher final stats

DRAM Statistics
 CHANNEL 0
 RQ ROW_BUFFER_HIT:      94619  ROW_BUFFER_MISS:     204027
 DBUS_CONGESTED:     231572
 WQ ROW_BUFFER_HIT:      53808  ROW_BUFFER_MISS:     128934  FULL:          0

 AVG_CONGESTED_CYCLE: 6

CPU 0 Branch Prediction Accuracy: 97.8666% MPKI: 3.9013 Average ROB Occupancy at Mispredict: 87.1985

Branch types
NOT_BRANCH: 40856330 81.7127%
BRANCH_DIRECT_JUMP: 484667 0.969334%
BRANCH_INDIRECT: 85086 0.170172%
BRANCH_CONDITIONAL: 6230887 12.4618%
BRANCH_DIRECT_CALL: 1028917 2.05783%
BRANCH_INDIRECT_CALL: 141825 0.28365%
BRANCH_RETURN: 1171986 2.34397%
BRANCH_OTHER: 0 0%

