Initialize SIGNATURE TABLE
ST_SET: 1
ST_WAY: 256
ST_TAG_BIT: 16
ST_TAG_MASK: ffff

Initialize PATTERN TABLE
PT_SET: 512
PT_WAY: 4
SIG_DELTA_BIT: 7
C_SIG_BIT: 4
C_DELTA_BIT: 4

Initialize PREFETCH FILTER
FILTER_SET: 1024

*** ChampSim Multicore Out-of-Order Simulator ***

Warmup Instructions: 50000000
Simulation Instructions: 50000000
Number of CPUs: 1
LLC sets: 2048
LLC ways: 16
Off-chip DRAM Size: 4096 MB Channels: 1 Width: 64-bit Data Rate: 3200 MT/s

CPU 0 runs /home/tapatil/CSE240C/SA1/ChampSim-master/ipc1_public/client_004.champsimtrace.xz
CPU 0 EPI prefetcher
CPU 0 L1D next line prefetcher
Heartbeat CPU 0 instructions: 10000000 cycles: 3592513 heartbeat IPC: 2.78357 cumulative IPC: 2.78357 (Simulation time: 0 hr 0 min 36 sec) 
Heartbeat CPU 0 instructions: 20000003 cycles: 7056908 heartbeat IPC: 2.88651 cumulative IPC: 2.8341 (Simulation time: 0 hr 1 min 10 sec) 
Heartbeat CPU 0 instructions: 30000000 cycles: 10647338 heartbeat IPC: 2.78518 cumulative IPC: 2.81761 (Simulation time: 0 hr 1 min 46 sec) 
Heartbeat CPU 0 instructions: 40000003 cycles: 14327889 heartbeat IPC: 2.71699 cumulative IPC: 2.79176 (Simulation time: 0 hr 2 min 24 sec) 
Heartbeat CPU 0 instructions: 50000001 cycles: 17845674 heartbeat IPC: 2.8427 cumulative IPC: 2.8018 (Simulation time: 0 hr 3 min 2 sec) 

Warmup complete CPU 0 instructions: 50000001 cycles: 17845674 (Simulation time: 0 hr 3 min 2 sec) 

Heartbeat CPU 0 instructions: 60000002 cycles: 25700811 heartbeat IPC: 1.27305 cumulative IPC: 1.27305 (Simulation time: 0 hr 3 min 35 sec) 
Heartbeat CPU 0 instructions: 70000001 cycles: 33517486 heartbeat IPC: 1.27932 cumulative IPC: 1.27618 (Simulation time: 0 hr 4 min 10 sec) 
Heartbeat CPU 0 instructions: 80000002 cycles: 42120632 heartbeat IPC: 1.16237 cumulative IPC: 1.23584 (Simulation time: 0 hr 4 min 42 sec) 
Heartbeat CPU 0 instructions: 90000000 cycles: 50210425 heartbeat IPC: 1.23613 cumulative IPC: 1.23591 (Simulation time: 0 hr 5 min 15 sec) 
Heartbeat CPU 0 instructions: 100000000 cycles: 58049845 heartbeat IPC: 1.2756 cumulative IPC: 1.24365 (Simulation time: 0 hr 5 min 49 sec) 
Finished CPU 0 instructions: 50000000 cycles: 40204172 cumulative IPC: 1.24365 (Simulation time: 0 hr 5 min 49 sec) 

ChampSim completed all CPUs

Region of Interest Statistics

CPU 0 cumulative IPC: 1.24365 instructions: 50000000 cycles: 40204172
L1D TOTAL     ACCESS:   21908313  HIT:   21019397  MISS:     888916
L1D LOAD      ACCESS:    8695479  HIT:    8299364  MISS:     396115
L1D RFO       ACCESS:    4810426  HIT:    4689058  MISS:     121368
L1D PREFETCH  ACCESS:    8402408  HIT:    8030975  MISS:     371433
L1D WRITEBACK ACCESS:          0  HIT:          0  MISS:          0
L1D PREFETCH  REQUESTED:    8734823  ISSUED:    8575041  USEFUL:     132950  USELESS:     238491
L1D AVERAGE MISS LATENCY: 29.4599 cycles
L1I TOTAL     ACCESS:   28589112  HIT:   27860947  MISS:     728165
L1I LOAD      ACCESS:    9375140  HIT:    9283121  MISS:      92019
L1I RFO       ACCESS:          0  HIT:          0  MISS:          0
L1I PREFETCH  ACCESS:   19213972  HIT:   18577826  MISS:     636146
L1I WRITEBACK ACCESS:          0  HIT:          0  MISS:          0
L1I PREFETCH  REQUESTED:   23482403  ISSUED:   23482403  USEFUL:     482103  USELESS:     154066
L1I AVERAGE MISS LATENCY: 25.8997 cycles
L2C TOTAL     ACCESS:    2420837  HIT:    2136638  MISS:     284199
L2C LOAD      ACCESS:     448030  HIT:     377554  MISS:      70476
L2C RFO       ACCESS:     117389  HIT:      46044  MISS:      71345
L2C PREFETCH  ACCESS:    1633417  HIT:    1491676  MISS:     141741
L2C WRITEBACK ACCESS:     222001  HIT:     221364  MISS:        637
L2C PREFETCH  REQUESTED:    1591683  ISSUED:    1591174  USEFUL:      22883  USELESS:     117836
L2C AVERAGE MISS LATENCY: 81.4111 cycles
LLC TOTAL     ACCESS:     677423  HIT:     548922  MISS:     128501
LLC LOAD      ACCESS:      70450  HIT:      47215  MISS:      23235
LLC RFO       ACCESS:      71340  HIT:      41038  MISS:      30302
LLC PREFETCH  ACCESS:     436021  HIT:     361319  MISS:      74702
LLC WRITEBACK ACCESS:      99612  HIT:      99350  MISS:        262
LLC PREFETCH  REQUESTED:          0  ISSUED:          0  USEFUL:      24486  USELESS:      49731
LLC AVERAGE MISS LATENCY: 176.987 cycles
Major fault: 0 Minor fault: 3977
CPU 0 L1I EPI prefetcher final stats
CPU 0 L1D next line prefetcher final stats

DRAM Statistics
 CHANNEL 0
 RQ ROW_BUFFER_HIT:      32703  ROW_BUFFER_MISS:      95520
 DBUS_CONGESTED:      59918
 WQ ROW_BUFFER_HIT:       8703  ROW_BUFFER_MISS:      34844  FULL:          0

 AVG_CONGESTED_CYCLE: 6

CPU 0 Branch Prediction Accuracy: 94.1242% MPKI: 11.6089 Average ROB Occupancy at Mispredict: 56.9919

Branch types
NOT_BRANCH: 40121057 80.2421%
BRANCH_DIRECT_JUMP: 644555 1.28911%
BRANCH_INDIRECT: 201946 0.403892%
BRANCH_CONDITIONAL: 7003556 14.0071%
BRANCH_DIRECT_CALL: 564820 1.12964%
BRANCH_INDIRECT_CALL: 445012 0.890024%
BRANCH_RETURN: 1018716 2.03743%
BRANCH_OTHER: 0 0%

