Initialize SIGNATURE TABLE
ST_SET: 1
ST_WAY: 256
ST_TAG_BIT: 16
ST_TAG_MASK: ffff

Initialize PATTERN TABLE
PT_SET: 512
PT_WAY: 4
SIG_DELTA_BIT: 7
C_SIG_BIT: 4
C_DELTA_BIT: 4

Initialize PREFETCH FILTER
FILTER_SET: 1024

*** ChampSim Multicore Out-of-Order Simulator ***

Warmup Instructions: 50000000
Simulation Instructions: 50000000
Number of CPUs: 1
LLC sets: 2048
LLC ways: 16
Off-chip DRAM Size: 4096 MB Channels: 1 Width: 64-bit Data Rate: 3200 MT/s

CPU 0 runs /home/tapatil/CSE240C/SA1/ChampSim-master/ipc1_public/client_006.champsimtrace.xz
L1I D-JOLT instruction prefetcher has been constructed!
CPU 0 L1D next line prefetcher
Heartbeat CPU 0 instructions: 10000003 cycles: 4267447 heartbeat IPC: 2.34332 cumulative IPC: 2.34332 (Simulation time: 0 hr 0 min 35 sec) 
Heartbeat CPU 0 instructions: 20000000 cycles: 8307818 heartbeat IPC: 2.47502 cumulative IPC: 2.40737 (Simulation time: 0 hr 1 min 9 sec) 
Heartbeat CPU 0 instructions: 30000003 cycles: 11372069 heartbeat IPC: 3.26344 cumulative IPC: 2.63804 (Simulation time: 0 hr 1 min 37 sec) 
Heartbeat CPU 0 instructions: 40000000 cycles: 14717753 heartbeat IPC: 2.98892 cumulative IPC: 2.71781 (Simulation time: 0 hr 2 min 8 sec) 
Heartbeat CPU 0 instructions: 50000003 cycles: 18822618 heartbeat IPC: 2.43613 cumulative IPC: 2.65638 (Simulation time: 0 hr 2 min 41 sec) 

Warmup complete CPU 0 instructions: 50000003 cycles: 18822618 (Simulation time: 0 hr 2 min 41 sec) 

Heartbeat CPU 0 instructions: 60000001 cycles: 26694112 heartbeat IPC: 1.27041 cumulative IPC: 1.27041 (Simulation time: 0 hr 3 min 10 sec) 
Heartbeat CPU 0 instructions: 70000003 cycles: 36422512 heartbeat IPC: 1.02792 cumulative IPC: 1.13637 (Simulation time: 0 hr 3 min 41 sec) 
Heartbeat CPU 0 instructions: 80000002 cycles: 44741563 heartbeat IPC: 1.20206 cumulative IPC: 1.15745 (Simulation time: 0 hr 4 min 9 sec) 
Heartbeat CPU 0 instructions: 90000003 cycles: 52560857 heartbeat IPC: 1.27889 cumulative IPC: 1.1856 (Simulation time: 0 hr 4 min 35 sec) 
Heartbeat CPU 0 instructions: 100000001 cycles: 60739804 heartbeat IPC: 1.22265 cumulative IPC: 1.19283 (Simulation time: 0 hr 5 min 3 sec) 
Finished CPU 0 instructions: 50000002 cycles: 41917187 cumulative IPC: 1.19283 (Simulation time: 0 hr 5 min 3 sec) 

ChampSim completed all CPUs

Region of Interest Statistics

CPU 0 cumulative IPC: 1.19283 instructions: 50000002 cycles: 41917187
L1D TOTAL     ACCESS:   16602971  HIT:   15875823  MISS:     727148
L1D LOAD      ACCESS:    6370904  HIT:    5963868  MISS:     407036
L1D RFO       ACCESS:    4332603  HIT:    4290002  MISS:      42601
L1D PREFETCH  ACCESS:    5899464  HIT:    5621953  MISS:     277511
L1D WRITEBACK ACCESS:          0  HIT:          0  MISS:          0
L1D PREFETCH  REQUESTED:    6412853  ISSUED:    6231827  USEFUL:     116495  USELESS:     160890
L1D AVERAGE MISS LATENCY: 82.217 cycles
L1I TOTAL     ACCESS:   13939226  HIT:   12583846  MISS:    1355380
L1I LOAD      ACCESS:    8492172  HIT:    8478703  MISS:      13469
L1I RFO       ACCESS:          0  HIT:          0  MISS:          0
L1I PREFETCH  ACCESS:    5447054  HIT:    4105143  MISS:    1341911
L1I WRITEBACK ACCESS:          0  HIT:          0  MISS:          0
L1I PREFETCH  REQUESTED:    5777811  ISSUED:    5584841  USEFUL:     871915  USELESS:     469881
L1I AVERAGE MISS LATENCY: 21.2173 cycles
L2C TOTAL     ACCESS:    2950535  HIT:    2396723  MISS:     553812
L2C LOAD      ACCESS:     351424  HIT:     112094  MISS:     239330
L2C RFO       ACCESS:      42324  HIT:      12337  MISS:      29987
L2C PREFETCH  ACCESS:    2380817  HIT:    2097106  MISS:     283711
L2C WRITEBACK ACCESS:     175970  HIT:     175186  MISS:        784
L2C PREFETCH  REQUESTED:    3065926  ISSUED:    3039519  USEFUL:      11049  USELESS:     273665
L2C AVERAGE MISS LATENCY: 115.902 cycles
LLC TOTAL     ACCESS:    1475207  HIT:    1082394  MISS:     392813
LLC LOAD      ACCESS:     229792  HIT:     135827  MISS:      93965
LLC RFO       ACCESS:      29985  HIT:       5212  MISS:      24773
LLC PREFETCH  ACCESS:    1080864  HIT:     807361  MISS:     273503
LLC WRITEBACK ACCESS:     134566  HIT:     133994  MISS:        572
LLC PREFETCH  REQUESTED:          0  ISSUED:          0  USEFUL:      42603  USELESS:     234591
LLC AVERAGE MISS LATENCY: 199.915 cycles
Major fault: 0 Minor fault: 10538
CPU 0 L1D next line prefetcher final stats

DRAM Statistics
 CHANNEL 0
 RQ ROW_BUFFER_HIT:     100448  ROW_BUFFER_MISS:     291767
 DBUS_CONGESTED:     227715
 WQ ROW_BUFFER_HIT:      21656  ROW_BUFFER_MISS:      93720  FULL:          0

 AVG_CONGESTED_CYCLE: 5

CPU 0 Branch Prediction Accuracy: 98.1683% MPKI: 3.13642 Average ROB Occupancy at Mispredict: 87.642

Branch types
NOT_BRANCH: 41438063 82.8761%
BRANCH_DIRECT_JUMP: 413829 0.827658%
BRANCH_INDIRECT: 47058 0.094116%
BRANCH_CONDITIONAL: 6843835 13.6877%
BRANCH_DIRECT_CALL: 536885 1.07377%
BRANCH_INDIRECT_CALL: 90642 0.181284%
BRANCH_RETURN: 629329 1.25866%
BRANCH_OTHER: 0 0%

