Initialize SIGNATURE TABLE
ST_SET: 1
ST_WAY: 256
ST_TAG_BIT: 16
ST_TAG_MASK: ffff

Initialize PATTERN TABLE
PT_SET: 512
PT_WAY: 4
SIG_DELTA_BIT: 7
C_SIG_BIT: 4
C_DELTA_BIT: 4

Initialize PREFETCH FILTER
FILTER_SET: 1024

*** ChampSim Multicore Out-of-Order Simulator ***

Warmup Instructions: 50000000
Simulation Instructions: 50000000
Number of CPUs: 1
LLC sets: 2048
LLC ways: 16
Off-chip DRAM Size: 4096 MB Channels: 1 Width: 64-bit Data Rate: 3200 MT/s

CPU 0 runs /home/tapatil/CSE240C/SA1/ChampSim-master/ipc1_public/client_006.champsimtrace.xz
L1I D-JOLT instruction prefetcher has been constructed!
CPU 0 L1D next line prefetcher
Heartbeat CPU 0 instructions: 10000003 cycles: 4267344 heartbeat IPC: 2.34338 cumulative IPC: 2.34338 (Simulation time: 0 hr 0 min 34 sec) 
Heartbeat CPU 0 instructions: 20000000 cycles: 8307380 heartbeat IPC: 2.47522 cumulative IPC: 2.4075 (Simulation time: 0 hr 1 min 8 sec) 
Heartbeat CPU 0 instructions: 30000003 cycles: 11371635 heartbeat IPC: 3.26344 cumulative IPC: 2.63814 (Simulation time: 0 hr 1 min 35 sec) 
Heartbeat CPU 0 instructions: 40000000 cycles: 14717809 heartbeat IPC: 2.98849 cumulative IPC: 2.7178 (Simulation time: 0 hr 2 min 4 sec) 
Heartbeat CPU 0 instructions: 50000003 cycles: 18822769 heartbeat IPC: 2.43608 cumulative IPC: 2.65636 (Simulation time: 0 hr 2 min 37 sec) 

Warmup complete CPU 0 instructions: 50000003 cycles: 18822769 (Simulation time: 0 hr 2 min 37 sec) 

Heartbeat CPU 0 instructions: 60000001 cycles: 26689504 heartbeat IPC: 1.27118 cumulative IPC: 1.27118 (Simulation time: 0 hr 3 min 4 sec) 
Heartbeat CPU 0 instructions: 70000003 cycles: 36418556 heartbeat IPC: 1.02785 cumulative IPC: 1.13664 (Simulation time: 0 hr 3 min 34 sec) 
Heartbeat CPU 0 instructions: 80000002 cycles: 44729623 heartbeat IPC: 1.20321 cumulative IPC: 1.15799 (Simulation time: 0 hr 4 min 2 sec) 
Heartbeat CPU 0 instructions: 90000003 cycles: 52540054 heartbeat IPC: 1.28034 cumulative IPC: 1.18634 (Simulation time: 0 hr 4 min 27 sec) 
Heartbeat CPU 0 instructions: 100000001 cycles: 60791023 heartbeat IPC: 1.21198 cumulative IPC: 1.19138 (Simulation time: 0 hr 4 min 54 sec) 
Finished CPU 0 instructions: 50000002 cycles: 41968255 cumulative IPC: 1.19138 (Simulation time: 0 hr 4 min 54 sec) 

ChampSim completed all CPUs

Region of Interest Statistics

CPU 0 cumulative IPC: 1.19138 instructions: 50000002 cycles: 41968255
L1D TOTAL     ACCESS:   16594023  HIT:   15866902  MISS:     727121
L1D LOAD      ACCESS:    6366472  HIT:    5959493  MISS:     406979
L1D RFO       ACCESS:    4333117  HIT:    4290507  MISS:      42610
L1D PREFETCH  ACCESS:    5894434  HIT:    5616902  MISS:     277532
L1D WRITEBACK ACCESS:          0  HIT:          0  MISS:          0
L1D PREFETCH  REQUESTED:    6408645  ISSUED:    6227535  USEFUL:     116522  USELESS:     160884
L1D AVERAGE MISS LATENCY: 82.5605 cycles
L1I TOTAL     ACCESS:   13865868  HIT:   12499927  MISS:    1365941
L1I LOAD      ACCESS:    8481319  HIT:    8468044  MISS:      13275
L1I RFO       ACCESS:          0  HIT:          0  MISS:          0
L1I PREFETCH  ACCESS:    5384549  HIT:    4031883  MISS:    1352666
L1I WRITEBACK ACCESS:          0  HIT:          0  MISS:          0
L1I PREFETCH  REQUESTED:    5643397  ISSUED:    5502548  USEFUL:     868264  USELESS:     484287
L1I AVERAGE MISS LATENCY: 21.4786 cycles
L2C TOTAL     ACCESS:    2956303  HIT:    2402228  MISS:     554075
L2C LOAD      ACCESS:     352359  HIT:     112304  MISS:     240055
L2C RFO       ACCESS:      42328  HIT:      12298  MISS:      30030
L2C PREFETCH  ACCESS:    2385649  HIT:    2102411  MISS:     283238
L2C WRITEBACK ACCESS:     175967  HIT:     175215  MISS:        752
L2C PREFETCH  REQUESTED:    3004886  ISSUED:    2976030  USEFUL:      10971  USELESS:     273314
L2C AVERAGE MISS LATENCY: 116.475 cycles
LLC TOTAL     ACCESS:    1467742  HIT:    1072517  MISS:     395225
LLC LOAD      ACCESS:     230521  HIT:     136186  MISS:      94335
LLC RFO       ACCESS:      30028  HIT:       5288  MISS:      24740
LLC PREFETCH  ACCESS:    1072563  HIT:     796988  MISS:     275575
LLC WRITEBACK ACCESS:     134630  HIT:     134055  MISS:        575
LLC PREFETCH  REQUESTED:          0  ISSUED:          0  USEFUL:      42836  USELESS:     236481
LLC AVERAGE MISS LATENCY: 201.204 cycles
Major fault: 0 Minor fault: 10538
CPU 0 L1D next line prefetcher final stats

DRAM Statistics
 CHANNEL 0
 RQ ROW_BUFFER_HIT:     100432  ROW_BUFFER_MISS:     294196
 DBUS_CONGESTED:     227872
 WQ ROW_BUFFER_HIT:      21896  ROW_BUFFER_MISS:      94002  FULL:          0

 AVG_CONGESTED_CYCLE: 5

CPU 0 Branch Prediction Accuracy: 98.1683% MPKI: 3.13642 Average ROB Occupancy at Mispredict: 87.8603

Branch types
NOT_BRANCH: 41438064 82.8761%
BRANCH_DIRECT_JUMP: 413829 0.827658%
BRANCH_INDIRECT: 47058 0.094116%
BRANCH_CONDITIONAL: 6843835 13.6877%
BRANCH_DIRECT_CALL: 536885 1.07377%
BRANCH_INDIRECT_CALL: 90642 0.181284%
BRANCH_RETURN: 629329 1.25866%
BRANCH_OTHER: 0 0%

