Initialize SIGNATURE TABLE
ST_SET: 1
ST_WAY: 256
ST_TAG_BIT: 16
ST_TAG_MASK: ffff

Initialize PATTERN TABLE
PT_SET: 512
PT_WAY: 4
SIG_DELTA_BIT: 7
C_SIG_BIT: 4
C_DELTA_BIT: 4

Initialize PREFETCH FILTER
FILTER_SET: 1024

*** ChampSim Multicore Out-of-Order Simulator ***

Warmup Instructions: 50000000
Simulation Instructions: 50000000
Number of CPUs: 1
LLC sets: 2048
LLC ways: 16
Off-chip DRAM Size: 4096 MB Channels: 1 Width: 64-bit Data Rate: 3200 MT/s

CPU 0 runs /home/tapatil/CSE240C/SA1/ChampSim-master/ipc1_public/client_003.champsimtrace.xz
L1I D-JOLT instruction prefetcher has been constructed!
CPU 0 L1D next line prefetcher
Heartbeat CPU 0 instructions: 10000000 cycles: 3478435 heartbeat IPC: 2.87486 cumulative IPC: 2.87486 (Simulation time: 0 hr 0 min 33 sec) 
Heartbeat CPU 0 instructions: 20000002 cycles: 6932695 heartbeat IPC: 2.89498 cumulative IPC: 2.88488 (Simulation time: 0 hr 1 min 6 sec) 
Heartbeat CPU 0 instructions: 30000003 cycles: 10493513 heartbeat IPC: 2.80834 cumulative IPC: 2.85891 (Simulation time: 0 hr 1 min 40 sec) 
Heartbeat CPU 0 instructions: 40000001 cycles: 14109961 heartbeat IPC: 2.76514 cumulative IPC: 2.83488 (Simulation time: 0 hr 2 min 14 sec) 
Heartbeat CPU 0 instructions: 50000003 cycles: 17654934 heartbeat IPC: 2.8209 cumulative IPC: 2.83207 (Simulation time: 0 hr 2 min 47 sec) 

Warmup complete CPU 0 instructions: 50000003 cycles: 17654934 (Simulation time: 0 hr 2 min 47 sec) 

Heartbeat CPU 0 instructions: 60000002 cycles: 24001586 heartbeat IPC: 1.57563 cumulative IPC: 1.57563 (Simulation time: 0 hr 3 min 19 sec) 
Heartbeat CPU 0 instructions: 70000001 cycles: 30085276 heartbeat IPC: 1.64374 cumulative IPC: 1.60897 (Simulation time: 0 hr 3 min 51 sec) 
Heartbeat CPU 0 instructions: 80000001 cycles: 37101477 heartbeat IPC: 1.42527 cumulative IPC: 1.54269 (Simulation time: 0 hr 4 min 21 sec) 
Heartbeat CPU 0 instructions: 90000000 cycles: 45934253 heartbeat IPC: 1.13215 cumulative IPC: 1.41446 (Simulation time: 0 hr 4 min 45 sec) 
Heartbeat CPU 0 instructions: 100000003 cycles: 56850748 heartbeat IPC: 0.916045 cumulative IPC: 1.27565 (Simulation time: 0 hr 5 min 13 sec) 
Finished CPU 0 instructions: 50000000 cycles: 39195814 cumulative IPC: 1.27565 (Simulation time: 0 hr 5 min 13 sec) 

ChampSim completed all CPUs

Region of Interest Statistics

CPU 0 cumulative IPC: 1.27565 instructions: 50000000 cycles: 39195814
L1D TOTAL     ACCESS:   17649833  HIT:   17153907  MISS:     495926
L1D LOAD      ACCESS:    6037904  HIT:    5914049  MISS:     123855
L1D RFO       ACCESS:    5948567  HIT:    5714111  MISS:     234456
L1D PREFETCH  ACCESS:    5663362  HIT:    5525747  MISS:     137615
L1D WRITEBACK ACCESS:          0  HIT:          0  MISS:          0
L1D PREFETCH  REQUESTED:    6079487  ISSUED:    5938502  USEFUL:      69736  USELESS:      67927
L1D AVERAGE MISS LATENCY: 124.891 cycles
L1I TOTAL     ACCESS:   15447903  HIT:   13775416  MISS:    1672487
L1I LOAD      ACCESS:    9483342  HIT:    9391437  MISS:      91905
L1I RFO       ACCESS:          0  HIT:          0  MISS:          0
L1I PREFETCH  ACCESS:    5964561  HIT:    4383979  MISS:    1580582
L1I WRITEBACK ACCESS:          0  HIT:          0  MISS:          0
L1I PREFETCH  REQUESTED:    6246412  ISSUED:    6121258  USEFUL:     698854  USELESS:     881788
L1I AVERAGE MISS LATENCY: 17.0931 cycles
L2C TOTAL     ACCESS:    3120587  HIT:    2717573  MISS:     403014
L2C LOAD      ACCESS:     171268  HIT:     120054  MISS:      51214
L2C RFO       ACCESS:     232306  HIT:      24961  MISS:     207345
L2C PREFETCH  ACCESS:    2447733  HIT:    2304369  MISS:     143364
L2C WRITEBACK ACCESS:     269280  HIT:     268189  MISS:       1091
L2C PREFETCH  REQUESTED:    1558322  ISSUED:    1558165  USEFUL:      15745  USELESS:     127441
L2C AVERAGE MISS LATENCY: 164.551 cycles
LLC TOTAL     ACCESS:     999037  HIT:     712383  MISS:     286654
LLC LOAD      ACCESS:      51130  HIT:      35510  MISS:      15620
LLC RFO       ACCESS:     207337  HIT:      34925  MISS:     172412
LLC PREFETCH  ACCESS:     515385  HIT:     417178  MISS:      98207
LLC WRITEBACK ACCESS:     225185  HIT:     224770  MISS:        415
LLC PREFETCH  REQUESTED:          0  ISSUED:          0  USEFUL:      12493  USELESS:      85256
LLC AVERAGE MISS LATENCY: 232.913 cycles
Major fault: 0 Minor fault: 5044
CPU 0 L1D next line prefetcher final stats

DRAM Statistics
 CHANNEL 0
 RQ ROW_BUFFER_HIT:      98381  ROW_BUFFER_MISS:     187855
 DBUS_CONGESTED:     257239
 WQ ROW_BUFFER_HIT:      57612  ROW_BUFFER_MISS:     121387  FULL:          0

 AVG_CONGESTED_CYCLE: 6

CPU 0 Branch Prediction Accuracy: 98.6631% MPKI: 2.66884 Average ROB Occupancy at Mispredict: 77.1738

Branch types
NOT_BRANCH: 40018778 80.0376%
BRANCH_DIRECT_JUMP: 370861 0.741722%
BRANCH_INDIRECT: 83253 0.166506%
BRANCH_CONDITIONAL: 7877436 15.7549%
BRANCH_DIRECT_CALL: 722315 1.44463%
BRANCH_INDIRECT_CALL: 101901 0.203802%
BRANCH_RETURN: 825355 1.65071%
BRANCH_OTHER: 0 0%

