Initialize SIGNATURE TABLE
ST_SET: 1
ST_WAY: 256
ST_TAG_BIT: 16
ST_TAG_MASK: ffff

Initialize PATTERN TABLE
PT_SET: 512
PT_WAY: 4
SIG_DELTA_BIT: 7
C_SIG_BIT: 4
C_DELTA_BIT: 4

Initialize PREFETCH FILTER
FILTER_SET: 1024

*** ChampSim Multicore Out-of-Order Simulator ***

Warmup Instructions: 50000000
Simulation Instructions: 50000000
Number of CPUs: 1
LLC sets: 2048
LLC ways: 16
Off-chip DRAM Size: 4096 MB Channels: 1 Width: 64-bit Data Rate: 3200 MT/s

CPU 0 runs /home/tapatil/CSE240C/SA1/ChampSim-master/ipc1_public/client_003.champsimtrace.xz
L1I D-JOLT instruction prefetcher has been constructed!
CPU 0 L1D next line prefetcher
Heartbeat CPU 0 instructions: 10000000 cycles: 3478478 heartbeat IPC: 2.87482 cumulative IPC: 2.87482 (Simulation time: 0 hr 0 min 33 sec) 
Heartbeat CPU 0 instructions: 20000002 cycles: 6932805 heartbeat IPC: 2.89492 cumulative IPC: 2.88484 (Simulation time: 0 hr 1 min 7 sec) 
Heartbeat CPU 0 instructions: 30000003 cycles: 10493740 heartbeat IPC: 2.80825 cumulative IPC: 2.85885 (Simulation time: 0 hr 1 min 41 sec) 
Heartbeat CPU 0 instructions: 40000001 cycles: 14110212 heartbeat IPC: 2.76513 cumulative IPC: 2.83483 (Simulation time: 0 hr 2 min 15 sec) 
Heartbeat CPU 0 instructions: 50000003 cycles: 17655309 heartbeat IPC: 2.8208 cumulative IPC: 2.83201 (Simulation time: 0 hr 2 min 49 sec) 

Warmup complete CPU 0 instructions: 50000003 cycles: 17655309 (Simulation time: 0 hr 2 min 49 sec) 

Heartbeat CPU 0 instructions: 60000002 cycles: 23998927 heartbeat IPC: 1.57639 cumulative IPC: 1.57639 (Simulation time: 0 hr 3 min 21 sec) 
Heartbeat CPU 0 instructions: 70000001 cycles: 30082638 heartbeat IPC: 1.64373 cumulative IPC: 1.60936 (Simulation time: 0 hr 3 min 54 sec) 
Heartbeat CPU 0 instructions: 80000000 cycles: 37097564 heartbeat IPC: 1.42553 cumulative IPC: 1.54303 (Simulation time: 0 hr 4 min 25 sec) 
Heartbeat CPU 0 instructions: 90000000 cycles: 46120445 heartbeat IPC: 1.10829 cumulative IPC: 1.40523 (Simulation time: 0 hr 4 min 50 sec) 
Heartbeat CPU 0 instructions: 100000003 cycles: 57017756 heartbeat IPC: 0.917658 cumulative IPC: 1.27025 (Simulation time: 0 hr 5 min 19 sec) 
Finished CPU 0 instructions: 50000000 cycles: 39362447 cumulative IPC: 1.27025 (Simulation time: 0 hr 5 min 19 sec) 

ChampSim completed all CPUs

Region of Interest Statistics

CPU 0 cumulative IPC: 1.27025 instructions: 50000000 cycles: 39362447
L1D TOTAL     ACCESS:   17641469  HIT:   17145538  MISS:     495931
L1D LOAD      ACCESS:    6039036  HIT:    5913225  MISS:     125811
L1D RFO       ACCESS:    5947081  HIT:    5712599  MISS:     234482
L1D PREFETCH  ACCESS:    5655352  HIT:    5519714  MISS:     135638
L1D WRITEBACK ACCESS:          0  HIT:          0  MISS:          0
L1D PREFETCH  REQUESTED:    6080559  ISSUED:    5939606  USEFUL:      67786  USELESS:      67900
L1D AVERAGE MISS LATENCY: 123.29 cycles
L1I TOTAL     ACCESS:   15879175  HIT:   13985074  MISS:    1894101
L1I LOAD      ACCESS:    9492407  HIT:    9398583  MISS:      93824
L1I RFO       ACCESS:          0  HIT:          0  MISS:          0
L1I PREFETCH  ACCESS:    6386768  HIT:    4586491  MISS:    1800277
L1I WRITEBACK ACCESS:          0  HIT:          0  MISS:          0
L1I PREFETCH  REQUESTED:    6749311  ISSUED:    6543574  USEFUL:     735067  USELESS:    1065284
L1I AVERAGE MISS LATENCY: 16.8059 cycles
L2C TOTAL     ACCESS:    3427552  HIT:    3021100  MISS:     406452
L2C LOAD      ACCESS:     171701  HIT:     120970  MISS:      50731
L2C RFO       ACCESS:     232313  HIT:      24624  MISS:     207689
L2C PREFETCH  ACCESS:    2754251  HIT:    2607347  MISS:     146904
L2C WRITEBACK ACCESS:     269287  HIT:     268159  MISS:       1128
L2C PREFETCH  REQUESTED:    1705559  ISSUED:    1705442  USEFUL:      15971  USELESS:     130810
L2C AVERAGE MISS LATENCY: 163.028 cycles
LLC TOTAL     ACCESS:    1018048  HIT:     730777  MISS:     287271
LLC LOAD      ACCESS:      50680  HIT:      35357  MISS:      15323
LLC RFO       ACCESS:     207674  HIT:      34770  MISS:     172904
LLC PREFETCH  ACCESS:     534078  HIT:     435434  MISS:      98644
LLC WRITEBACK ACCESS:     225616  HIT:     225216  MISS:        400
LLC PREFETCH  REQUESTED:          0  ISSUED:          0  USEFUL:      12386  USELESS:      86250
LLC AVERAGE MISS LATENCY: 229.871 cycles
Major fault: 0 Minor fault: 5045
CPU 0 L1D next line prefetcher final stats

DRAM Statistics
 CHANNEL 0
 RQ ROW_BUFFER_HIT:      99194  ROW_BUFFER_MISS:     187666
 DBUS_CONGESTED:     253236
 WQ ROW_BUFFER_HIT:      59937  ROW_BUFFER_MISS:     119119  FULL:          0

 AVG_CONGESTED_CYCLE: 6

CPU 0 Branch Prediction Accuracy: 98.6631% MPKI: 2.66884 Average ROB Occupancy at Mispredict: 76.8616

Branch types
NOT_BRANCH: 40018772 80.0375%
BRANCH_DIRECT_JUMP: 370861 0.741722%
BRANCH_INDIRECT: 83252 0.166504%
BRANCH_CONDITIONAL: 7877435 15.7549%
BRANCH_DIRECT_CALL: 722315 1.44463%
BRANCH_INDIRECT_CALL: 101901 0.203802%
BRANCH_RETURN: 825355 1.65071%
BRANCH_OTHER: 0 0%

