Initialize SIGNATURE TABLE
ST_SET: 1
ST_WAY: 256
ST_TAG_BIT: 16
ST_TAG_MASK: ffff

Initialize PATTERN TABLE
PT_SET: 512
PT_WAY: 4
SIG_DELTA_BIT: 7
C_SIG_BIT: 4
C_DELTA_BIT: 4

Initialize PREFETCH FILTER
FILTER_SET: 1024

*** ChampSim Multicore Out-of-Order Simulator ***

Warmup Instructions: 50000000
Simulation Instructions: 50000000
Number of CPUs: 1
LLC sets: 2048
LLC ways: 16
Off-chip DRAM Size: 4096 MB Channels: 1 Width: 64-bit Data Rate: 3200 MT/s

CPU 0 runs /home/tapatil/CSE240C/SA1/ChampSim-master/ipc1_public/client_001.champsimtrace.xz
CPU 0 EPI prefetcher
CPU 0 L1D next line prefetcher
Heartbeat CPU 0 instructions: 10000003 cycles: 3410377 heartbeat IPC: 2.93223 cumulative IPC: 2.93223 (Simulation time: 0 hr 0 min 35 sec) 
Heartbeat CPU 0 instructions: 20000001 cycles: 7118724 heartbeat IPC: 2.69662 cumulative IPC: 2.80949 (Simulation time: 0 hr 1 min 13 sec) 
Heartbeat CPU 0 instructions: 30000001 cycles: 10481679 heartbeat IPC: 2.97358 cumulative IPC: 2.86214 (Simulation time: 0 hr 1 min 49 sec) 
Heartbeat CPU 0 instructions: 40000003 cycles: 14351848 heartbeat IPC: 2.58387 cumulative IPC: 2.7871 (Simulation time: 0 hr 2 min 25 sec) 
Heartbeat CPU 0 instructions: 50000003 cycles: 17649195 heartbeat IPC: 3.03274 cumulative IPC: 2.83299 (Simulation time: 0 hr 3 min 0 sec) 

Warmup complete CPU 0 instructions: 50000003 cycles: 17649195 (Simulation time: 0 hr 3 min 0 sec) 

Heartbeat CPU 0 instructions: 60000000 cycles: 26662879 heartbeat IPC: 1.10942 cumulative IPC: 1.10942 (Simulation time: 0 hr 3 min 36 sec) 
Heartbeat CPU 0 instructions: 70000000 cycles: 32977799 heartbeat IPC: 1.58355 cumulative IPC: 1.30475 (Simulation time: 0 hr 4 min 10 sec) 
Heartbeat CPU 0 instructions: 80000002 cycles: 42298586 heartbeat IPC: 1.07287 cumulative IPC: 1.21707 (Simulation time: 0 hr 4 min 51 sec) 
Heartbeat CPU 0 instructions: 90000000 cycles: 48459436 heartbeat IPC: 1.62315 cumulative IPC: 1.29827 (Simulation time: 0 hr 5 min 24 sec) 
Heartbeat CPU 0 instructions: 100000002 cycles: 57307478 heartbeat IPC: 1.13019 cumulative IPC: 1.26077 (Simulation time: 0 hr 5 min 57 sec) 
Finished CPU 0 instructions: 50000003 cycles: 39658284 cumulative IPC: 1.26077 (Simulation time: 0 hr 5 min 57 sec) 

ChampSim completed all CPUs

Region of Interest Statistics

CPU 0 cumulative IPC: 1.26077 instructions: 50000003 cycles: 39658284
L1D TOTAL     ACCESS:   21236335  HIT:   20399903  MISS:     836432
L1D LOAD      ACCESS:    8819373  HIT:    8424672  MISS:     394701
L1D RFO       ACCESS:    4041473  HIT:    3982456  MISS:      59017
L1D PREFETCH  ACCESS:    8375489  HIT:    7992775  MISS:     382714
L1D WRITEBACK ACCESS:          0  HIT:          0  MISS:          0
L1D PREFETCH  REQUESTED:    8864665  ISSUED:    8554907  USEFUL:     129673  USELESS:     253015
L1D AVERAGE MISS LATENCY: 47.5072 cycles
L1I TOTAL     ACCESS:   33513464  HIT:   33091810  MISS:     421654
L1I LOAD      ACCESS:    8919474  HIT:    8908985  MISS:      10489
L1I RFO       ACCESS:          0  HIT:          0  MISS:          0
L1I PREFETCH  ACCESS:   24593990  HIT:   24182825  MISS:     411165
L1I WRITEBACK ACCESS:          0  HIT:          0  MISS:          0
L1I PREFETCH  REQUESTED:   31035197  ISSUED:   31035197  USEFUL:     303532  USELESS:     107576
L1I AVERAGE MISS LATENCY: 22.2004 cycles
L2C TOTAL     ACCESS:    1920905  HIT:    1615718  MISS:     305187
L2C LOAD      ACCESS:     382283  HIT:     270187  MISS:     112096
L2C RFO       ACCESS:      58270  HIT:      21722  MISS:      36548
L2C PREFETCH  ACCESS:    1290765  HIT:    1134446  MISS:     156319
L2C WRITEBACK ACCESS:     189587  HIT:     189363  MISS:        224
L2C PREFETCH  REQUESTED:    1709466  ISSUED:    1702479  USEFUL:      14196  USELESS:     141014
L2C AVERAGE MISS LATENCY: 105.651 cycles
LLC TOTAL     ACCESS:     798711  HIT:     602415  MISS:     196296
LLC LOAD      ACCESS:     111748  HIT:      70397  MISS:      41351
LLC RFO       ACCESS:      36547  HIT:       8605  MISS:      27942
LLC PREFETCH  ACCESS:     544621  HIT:     418279  MISS:     126342
LLC WRITEBACK ACCESS:     105795  HIT:     105134  MISS:        661
LLC PREFETCH  REQUESTED:          0  ISSUED:          0  USEFUL:      28499  USELESS:      99617
LLC AVERAGE MISS LATENCY: 189.556 cycles
Major fault: 0 Minor fault: 3445
CPU 0 L1I EPI prefetcher final stats
CPU 0 L1D next line prefetcher final stats

DRAM Statistics
 CHANNEL 0
 RQ ROW_BUFFER_HIT:      48056  ROW_BUFFER_MISS:     147570
 DBUS_CONGESTED:     118291
 WQ ROW_BUFFER_HIT:      15688  ROW_BUFFER_MISS:      65055  FULL:          0

 AVG_CONGESTED_CYCLE: 5

CPU 0 Branch Prediction Accuracy: 97.9037% MPKI: 3.63418 Average ROB Occupancy at Mispredict: 87.1291

Branch types
NOT_BRANCH: 41331383 82.6628%
BRANCH_DIRECT_JUMP: 455615 0.91123%
BRANCH_INDIRECT: 20390 0.04078%
BRANCH_CONDITIONAL: 6745374 13.4907%
BRANCH_DIRECT_CALL: 494532 0.989064%
BRANCH_INDIRECT_CALL: 228815 0.45763%
BRANCH_RETURN: 723560 1.44712%
BRANCH_OTHER: 0 0%

