Initialize SIGNATURE TABLE
ST_SET: 1
ST_WAY: 256
ST_TAG_BIT: 16
ST_TAG_MASK: ffff

Initialize PATTERN TABLE
PT_SET: 512
PT_WAY: 4
SIG_DELTA_BIT: 7
C_SIG_BIT: 4
C_DELTA_BIT: 4

Initialize PREFETCH FILTER
FILTER_SET: 1024

*** ChampSim Multicore Out-of-Order Simulator ***

Warmup Instructions: 50000000
Simulation Instructions: 50000000
Number of CPUs: 1
LLC sets: 2048
LLC ways: 16
Off-chip DRAM Size: 4096 MB Channels: 1 Width: 64-bit Data Rate: 3200 MT/s

CPU 0 runs /home/tapatil/CSE240C/SA1/ChampSim-master/ipc1_public/client_008.champsimtrace.xz
L1I D-JOLT instruction prefetcher has been constructed!
CPU 0 L1D next line prefetcher
Heartbeat CPU 0 instructions: 10000001 cycles: 3755336 heartbeat IPC: 2.66288 cumulative IPC: 2.66288 (Simulation time: 0 hr 0 min 34 sec) 
Heartbeat CPU 0 instructions: 20000001 cycles: 7533828 heartbeat IPC: 2.64656 cumulative IPC: 2.65469 (Simulation time: 0 hr 1 min 10 sec) 
Heartbeat CPU 0 instructions: 30000000 cycles: 11262997 heartbeat IPC: 2.68156 cumulative IPC: 2.66359 (Simulation time: 0 hr 1 min 46 sec) 
Heartbeat CPU 0 instructions: 40000002 cycles: 15060290 heartbeat IPC: 2.63346 cumulative IPC: 2.65599 (Simulation time: 0 hr 2 min 21 sec) 
Heartbeat CPU 0 instructions: 50000003 cycles: 18855584 heartbeat IPC: 2.63484 cumulative IPC: 2.65173 (Simulation time: 0 hr 2 min 57 sec) 

Warmup complete CPU 0 instructions: 50000003 cycles: 18855584 (Simulation time: 0 hr 2 min 57 sec) 

Heartbeat CPU 0 instructions: 60000000 cycles: 27036642 heartbeat IPC: 1.22234 cumulative IPC: 1.22234 (Simulation time: 0 hr 3 min 34 sec) 
Heartbeat CPU 0 instructions: 70000000 cycles: 34997556 heartbeat IPC: 1.25614 cumulative IPC: 1.23901 (Simulation time: 0 hr 4 min 13 sec) 
Heartbeat CPU 0 instructions: 80000001 cycles: 44099519 heartbeat IPC: 1.09866 cumulative IPC: 1.1884 (Simulation time: 0 hr 4 min 45 sec) 
Heartbeat CPU 0 instructions: 90000001 cycles: 51467803 heartbeat IPC: 1.35717 cumulative IPC: 1.22653 (Simulation time: 0 hr 5 min 15 sec) 
Heartbeat CPU 0 instructions: 100000001 cycles: 59516220 heartbeat IPC: 1.24248 cumulative IPC: 1.22969 (Simulation time: 0 hr 5 min 45 sec) 
Finished CPU 0 instructions: 50000002 cycles: 40660637 cumulative IPC: 1.22969 (Simulation time: 0 hr 5 min 45 sec) 

ChampSim completed all CPUs

Region of Interest Statistics

CPU 0 cumulative IPC: 1.22969 instructions: 50000002 cycles: 40660637
L1D TOTAL     ACCESS:   20478573  HIT:   18850129  MISS:    1628444
L1D LOAD      ACCESS:    8061272  HIT:    7261798  MISS:     799474
L1D RFO       ACCESS:    4814224  HIT:    4704697  MISS:     109527
L1D PREFETCH  ACCESS:    7603077  HIT:    6883634  MISS:     719443
L1D WRITEBACK ACCESS:          0  HIT:          0  MISS:          0
L1D PREFETCH  REQUESTED:    8130829  ISSUED:    7962247  USEFUL:     199673  USELESS:     519775
L1D AVERAGE MISS LATENCY: 33.0484 cycles
L1I TOTAL     ACCESS:   16000777  HIT:   14391051  MISS:    1609726
L1I LOAD      ACCESS:    9772021  HIT:    9724157  MISS:      47864
L1I RFO       ACCESS:          0  HIT:          0  MISS:          0
L1I PREFETCH  ACCESS:    6228756  HIT:    4666894  MISS:    1561862
L1I WRITEBACK ACCESS:          0  HIT:          0  MISS:          0
L1I PREFETCH  REQUESTED:    6770389  ISSUED:    6697438  USEFUL:     849122  USELESS:     712855
L1I AVERAGE MISS LATENCY: 17.0136 cycles
L2C TOTAL     ACCESS:    4551558  HIT:    4084063  MISS:     467495
L2C LOAD      ACCESS:     793771  HIT:     623176  MISS:     170595
L2C RFO       ACCESS:     104290  HIT:      18290  MISS:      86000
L2C PREFETCH  ACCESS:    3471505  HIT:    3261060  MISS:     210445
L2C WRITEBACK ACCESS:     181992  HIT:     181537  MISS:        455
L2C PREFETCH  REQUESTED:    3290151  ISSUED:    3264443  USEFUL:      20261  USELESS:     192093
L2C AVERAGE MISS LATENCY: 75.0406 cycles
LLC TOTAL     ACCESS:    1540709  HIT:    1357383  MISS:     183326
LLC LOAD      ACCESS:     170509  HIT:     147634  MISS:      22875
LLC RFO       ACCESS:      85998  HIT:      15496  MISS:      70502
LLC PREFETCH  ACCESS:    1148496  HIT:    1058907  MISS:      89589
LLC WRITEBACK ACCESS:     135706  HIT:     135346  MISS:        360
LLC PREFETCH  REQUESTED:          0  ISSUED:          0  USEFUL:      24649  USELESS:      72655
LLC AVERAGE MISS LATENCY: 167.603 cycles
Major fault: 0 Minor fault: 5306
CPU 0 L1D next line prefetcher final stats

DRAM Statistics
 CHANNEL 0
 RQ ROW_BUFFER_HIT:      51130  ROW_BUFFER_MISS:     131822
 DBUS_CONGESTED:      96158
 WQ ROW_BUFFER_HIT:      24425  ROW_BUFFER_MISS:      65429  FULL:          0

 AVG_CONGESTED_CYCLE: 6

CPU 0 Branch Prediction Accuracy: 98.6482% MPKI: 3.1551 Average ROB Occupancy at Mispredict: 96.9663

Branch types
NOT_BRANCH: 38329598 76.6592%
BRANCH_DIRECT_JUMP: 510116 1.02023%
BRANCH_INDIRECT: 225730 0.45146%
BRANCH_CONDITIONAL: 8366762 16.7335%
BRANCH_DIRECT_CALL: 600748 1.2015%
BRANCH_INDIRECT_CALL: 682990 1.36598%
BRANCH_RETURN: 1283974 2.56795%
BRANCH_OTHER: 0 0%

