Initialize SIGNATURE TABLE
ST_SET: 1
ST_WAY: 256
ST_TAG_BIT: 16
ST_TAG_MASK: ffff

Initialize PATTERN TABLE
PT_SET: 512
PT_WAY: 4
SIG_DELTA_BIT: 7
C_SIG_BIT: 4
C_DELTA_BIT: 4

Initialize PREFETCH FILTER
FILTER_SET: 1024

*** ChampSim Multicore Out-of-Order Simulator ***

Warmup Instructions: 50000000
Simulation Instructions: 50000000
Number of CPUs: 1
LLC sets: 2048
LLC ways: 16
Off-chip DRAM Size: 4096 MB Channels: 1 Width: 64-bit Data Rate: 3200 MT/s

CPU 0 runs /home/tapatil/CSE240C/SA1/ChampSim-master/ipc1_public/client_007.champsimtrace.xz
L1I D-JOLT instruction prefetcher has been constructed!
CPU 0 L1D next line prefetcher
Heartbeat CPU 0 instructions: 10000001 cycles: 3642339 heartbeat IPC: 2.74549 cumulative IPC: 2.74549 (Simulation time: 0 hr 0 min 31 sec) 
Heartbeat CPU 0 instructions: 20000003 cycles: 7034665 heartbeat IPC: 2.94783 cumulative IPC: 2.84306 (Simulation time: 0 hr 0 min 59 sec) 
Heartbeat CPU 0 instructions: 30000000 cycles: 10907226 heartbeat IPC: 2.58227 cumulative IPC: 2.75047 (Simulation time: 0 hr 1 min 33 sec) 
Heartbeat CPU 0 instructions: 40000003 cycles: 15067134 heartbeat IPC: 2.4039 cumulative IPC: 2.65479 (Simulation time: 0 hr 2 min 5 sec) 
Heartbeat CPU 0 instructions: 50000002 cycles: 18472608 heartbeat IPC: 2.93645 cumulative IPC: 2.70671 (Simulation time: 0 hr 2 min 35 sec) 

Warmup complete CPU 0 instructions: 50000002 cycles: 18472608 (Simulation time: 0 hr 2 min 35 sec) 

Heartbeat CPU 0 instructions: 60000003 cycles: 25365034 heartbeat IPC: 1.45087 cumulative IPC: 1.45087 (Simulation time: 0 hr 3 min 8 sec) 
Heartbeat CPU 0 instructions: 70000003 cycles: 34238170 heartbeat IPC: 1.127 cumulative IPC: 1.26859 (Simulation time: 0 hr 3 min 43 sec) 
Heartbeat CPU 0 instructions: 80000002 cycles: 39559666 heartbeat IPC: 1.87917 cumulative IPC: 1.42267 (Simulation time: 0 hr 4 min 8 sec) 
Heartbeat CPU 0 instructions: 90000002 cycles: 47179950 heartbeat IPC: 1.31229 cumulative IPC: 1.39337 (Simulation time: 0 hr 4 min 41 sec) 
Heartbeat CPU 0 instructions: 100000002 cycles: 56104858 heartbeat IPC: 1.12046 cumulative IPC: 1.32865 (Simulation time: 0 hr 5 min 10 sec) 
Finished CPU 0 instructions: 50000000 cycles: 37632250 cumulative IPC: 1.32865 (Simulation time: 0 hr 5 min 10 sec) 

ChampSim completed all CPUs

Region of Interest Statistics

CPU 0 cumulative IPC: 1.32865 instructions: 50000000 cycles: 37632250
L1D TOTAL     ACCESS:   21191000  HIT:   20021947  MISS:    1169053
L1D LOAD      ACCESS:    8366355  HIT:    7827331  MISS:     539024
L1D RFO       ACCESS:    4868354  HIT:    4777270  MISS:      91084
L1D PREFETCH  ACCESS:    7956291  HIT:    7417346  MISS:     538945
L1D WRITEBACK ACCESS:          0  HIT:          0  MISS:          0
L1D PREFETCH  REQUESTED:    8418562  ISSUED:    8174757  USEFUL:     158446  USELESS:     380514
L1D AVERAGE MISS LATENCY: 34.5441 cycles
L1I TOTAL     ACCESS:   13001958  HIT:   11840471  MISS:    1161487
L1I LOAD      ACCESS:    9113154  HIT:    9057270  MISS:      55884
L1I RFO       ACCESS:          0  HIT:          0  MISS:          0
L1I PREFETCH  ACCESS:    3888804  HIT:    2783201  MISS:    1105603
L1I WRITEBACK ACCESS:          0  HIT:          0  MISS:          0
L1I PREFETCH  REQUESTED:    4013390  ISSUED:    3964866  USEFUL:     846308  USELESS:     259349
L1I AVERAGE MISS LATENCY: 16.5039 cycles
L2C TOTAL     ACCESS:    3479499  HIT:    3270869  MISS:     208630
L2C LOAD      ACCESS:     565269  HIT:     495100  MISS:      70169
L2C RFO       ACCESS:      89467  HIT:      47600  MISS:      41867
L2C PREFETCH  ACCESS:    2497106  HIT:    2400605  MISS:      96501
L2C WRITEBACK ACCESS:     327657  HIT:     327564  MISS:         93
L2C PREFETCH  REQUESTED:    2524883  ISSUED:    2517123  USEFUL:       9914  USELESS:      86542
L2C AVERAGE MISS LATENCY: 124.224 cycles
LLC TOTAL     ACCESS:     934629  HIT:     765805  MISS:     168824
LLC LOAD      ACCESS:      70077  HIT:      34722  MISS:      35355
LLC RFO       ACCESS:      41867  HIT:       7375  MISS:      34492
LLC PREFETCH  ACCESS:     747996  HIT:     649325  MISS:      98671
LLC WRITEBACK ACCESS:      74689  HIT:      74383  MISS:        306
LLC PREFETCH  REQUESTED:          0  ISSUED:          0  USEFUL:      18575  USELESS:      81416
LLC AVERAGE MISS LATENCY: 182.419 cycles
Major fault: 0 Minor fault: 4410
CPU 0 L1D next line prefetcher final stats

DRAM Statistics
 CHANNEL 0
 RQ ROW_BUFFER_HIT:      35371  ROW_BUFFER_MISS:     133142
 DBUS_CONGESTED:      93837
 WQ ROW_BUFFER_HIT:      12951  ROW_BUFFER_MISS:      45177  FULL:          0

 AVG_CONGESTED_CYCLE: 5

CPU 0 Branch Prediction Accuracy: 98.8607% MPKI: 1.8623 Average ROB Occupancy at Mispredict: 113.361

Branch types
NOT_BRANCH: 41826773 83.6535%
BRANCH_DIRECT_JUMP: 735330 1.47066%
BRANCH_INDIRECT: 269194 0.538388%
BRANCH_CONDITIONAL: 5957947 11.9159%
BRANCH_DIRECT_CALL: 368758 0.737516%
BRANCH_INDIRECT_CALL: 226975 0.45395%
BRANCH_RETURN: 614696 1.22939%
BRANCH_OTHER: 0 0%

