Initialize SIGNATURE TABLE
ST_SET: 1
ST_WAY: 256
ST_TAG_BIT: 16
ST_TAG_MASK: ffff

Initialize PATTERN TABLE
PT_SET: 512
PT_WAY: 4
SIG_DELTA_BIT: 7
C_SIG_BIT: 4
C_DELTA_BIT: 4

Initialize PREFETCH FILTER
FILTER_SET: 1024

*** ChampSim Multicore Out-of-Order Simulator ***

Warmup Instructions: 50000000
Simulation Instructions: 50000000
Number of CPUs: 1
LLC sets: 2048
LLC ways: 16
Off-chip DRAM Size: 4096 MB Channels: 1 Width: 64-bit Data Rate: 3200 MT/s

CPU 0 runs /home/tapatil/CSE240C/SA1/ChampSim-master/ipc1_public/client_003.champsimtrace.xz
L1I D-JOLT instruction prefetcher has been constructed!
CPU 0 L1D next line prefetcher
Heartbeat CPU 0 instructions: 10000000 cycles: 3478417 heartbeat IPC: 2.87487 cumulative IPC: 2.87487 (Simulation time: 0 hr 0 min 32 sec) 
Heartbeat CPU 0 instructions: 20000002 cycles: 6932577 heartbeat IPC: 2.89506 cumulative IPC: 2.88493 (Simulation time: 0 hr 1 min 5 sec) 
Heartbeat CPU 0 instructions: 30000003 cycles: 10493487 heartbeat IPC: 2.80827 cumulative IPC: 2.85892 (Simulation time: 0 hr 1 min 40 sec) 
Heartbeat CPU 0 instructions: 40000001 cycles: 14109994 heartbeat IPC: 2.7651 cumulative IPC: 2.83487 (Simulation time: 0 hr 2 min 14 sec) 
Heartbeat CPU 0 instructions: 50000003 cycles: 17655043 heartbeat IPC: 2.82084 cumulative IPC: 2.83205 (Simulation time: 0 hr 2 min 48 sec) 

Warmup complete CPU 0 instructions: 50000003 cycles: 17655043 (Simulation time: 0 hr 2 min 48 sec) 

Heartbeat CPU 0 instructions: 60000002 cycles: 24000437 heartbeat IPC: 1.57595 cumulative IPC: 1.57595 (Simulation time: 0 hr 3 min 20 sec) 
Heartbeat CPU 0 instructions: 70000001 cycles: 30081147 heartbeat IPC: 1.64454 cumulative IPC: 1.60951 (Simulation time: 0 hr 3 min 53 sec) 
Heartbeat CPU 0 instructions: 80000003 cycles: 37096962 heartbeat IPC: 1.42535 cumulative IPC: 1.54306 (Simulation time: 0 hr 4 min 24 sec) 
Heartbeat CPU 0 instructions: 90000000 cycles: 46071992 heartbeat IPC: 1.1142 cumulative IPC: 1.40761 (Simulation time: 0 hr 4 min 49 sec) 
Heartbeat CPU 0 instructions: 100000003 cycles: 56975186 heartbeat IPC: 0.917163 cumulative IPC: 1.27161 (Simulation time: 0 hr 5 min 17 sec) 
Finished CPU 0 instructions: 50000000 cycles: 39320143 cumulative IPC: 1.27161 (Simulation time: 0 hr 5 min 17 sec) 

ChampSim completed all CPUs

Region of Interest Statistics

CPU 0 cumulative IPC: 1.27161 instructions: 50000000 cycles: 39320143
L1D TOTAL     ACCESS:   17645358  HIT:   17149388  MISS:     495970
L1D LOAD      ACCESS:    6038595  HIT:    5913916  MISS:     124679
L1D RFO       ACCESS:    5949979  HIT:    5715513  MISS:     234466
L1D PREFETCH  ACCESS:    5656784  HIT:    5519959  MISS:     136825
L1D WRITEBACK ACCESS:          0  HIT:          0  MISS:          0
L1D PREFETCH  REQUESTED:    6079900  ISSUED:    5938973  USEFUL:      68941  USELESS:      67932
L1D AVERAGE MISS LATENCY: 123.611 cycles
L1I TOTAL     ACCESS:   15371886  HIT:   13722695  MISS:    1649191
L1I LOAD      ACCESS:    9483921  HIT:    9391811  MISS:      92110
L1I RFO       ACCESS:          0  HIT:          0  MISS:          0
L1I PREFETCH  ACCESS:    5887965  HIT:    4330884  MISS:    1557081
L1I WRITEBACK ACCESS:          0  HIT:          0  MISS:          0
L1I PREFETCH  REQUESTED:    6172582  ISSUED:    6022161  USEFUL:     694004  USELESS:     863172
L1I AVERAGE MISS LATENCY: 17.1306 cycles
L2C TOTAL     ACCESS:    3077466  HIT:    2672567  MISS:     404899
L2C LOAD      ACCESS:     170950  HIT:     119522  MISS:      51428
L2C RFO       ACCESS:     232340  HIT:      24640  MISS:     207700
L2C PREFETCH  ACCESS:    2404875  HIT:    2260211  MISS:     144664
L2C WRITEBACK ACCESS:     269301  HIT:     268194  MISS:       1107
L2C PREFETCH  REQUESTED:    1509112  ISSUED:    1508967  USEFUL:      15803  USELESS:     128800
L2C AVERAGE MISS LATENCY: 162.965 cycles
LLC TOTAL     ACCESS:     995555  HIT:     708793  MISS:     286762
LLC LOAD      ACCESS:      51386  HIT:      35657  MISS:      15729
LLC RFO       ACCESS:     207687  HIT:      35008  MISS:     172679
LLC PREFETCH  ACCESS:     510879  HIT:     412903  MISS:      97976
LLC WRITEBACK ACCESS:     225603  HIT:     225225  MISS:        378
LLC PREFETCH  REQUESTED:          0  ISSUED:          0  USEFUL:      12273  USELESS:      85647
LLC AVERAGE MISS LATENCY: 229.322 cycles
Major fault: 0 Minor fault: 5045
CPU 0 L1D next line prefetcher final stats

DRAM Statistics
 CHANNEL 0
 RQ ROW_BUFFER_HIT:      99993  ROW_BUFFER_MISS:     186386
 DBUS_CONGESTED:     254149
 WQ ROW_BUFFER_HIT:      59079  ROW_BUFFER_MISS:     119678  FULL:          0

 AVG_CONGESTED_CYCLE: 6

CPU 0 Branch Prediction Accuracy: 98.6631% MPKI: 2.66884 Average ROB Occupancy at Mispredict: 77.1841

Branch types
NOT_BRANCH: 40018775 80.0375%
BRANCH_DIRECT_JUMP: 370861 0.741722%
BRANCH_INDIRECT: 83252 0.166504%
BRANCH_CONDITIONAL: 7877435 15.7549%
BRANCH_DIRECT_CALL: 722315 1.44463%
BRANCH_INDIRECT_CALL: 101901 0.203802%
BRANCH_RETURN: 825355 1.65071%
BRANCH_OTHER: 0 0%

