Initialize SIGNATURE TABLE
ST_SET: 1
ST_WAY: 256
ST_TAG_BIT: 16
ST_TAG_MASK: ffff

Initialize PATTERN TABLE
PT_SET: 512
PT_WAY: 4
SIG_DELTA_BIT: 7
C_SIG_BIT: 4
C_DELTA_BIT: 4

Initialize PREFETCH FILTER
FILTER_SET: 1024

*** ChampSim Multicore Out-of-Order Simulator ***

Warmup Instructions: 50000000
Simulation Instructions: 50000000
Number of CPUs: 1
LLC sets: 2048
LLC ways: 16
Off-chip DRAM Size: 4096 MB Channels: 1 Width: 64-bit Data Rate: 3200 MT/s

CPU 0 runs /home/tapatil/CSE240C/SA1/ChampSim-master/ipc1_public/client_003.champsimtrace.xz
CPU 0 EPI prefetcher
CPU 0 L1D next line prefetcher
Heartbeat CPU 0 instructions: 10000000 cycles: 3478410 heartbeat IPC: 2.87488 cumulative IPC: 2.87488 (Simulation time: 0 hr 0 min 40 sec) 
Heartbeat CPU 0 instructions: 20000002 cycles: 6932962 heartbeat IPC: 2.89473 cumulative IPC: 2.88477 (Simulation time: 0 hr 1 min 21 sec) 
Heartbeat CPU 0 instructions: 30000003 cycles: 10494111 heartbeat IPC: 2.80808 cumulative IPC: 2.85875 (Simulation time: 0 hr 2 min 3 sec) 
Heartbeat CPU 0 instructions: 40000001 cycles: 14110635 heartbeat IPC: 2.76509 cumulative IPC: 2.83474 (Simulation time: 0 hr 2 min 47 sec) 
Heartbeat CPU 0 instructions: 50000003 cycles: 17655835 heartbeat IPC: 2.82072 cumulative IPC: 2.83193 (Simulation time: 0 hr 3 min 28 sec) 

Warmup complete CPU 0 instructions: 50000003 cycles: 17655835 (Simulation time: 0 hr 3 min 28 sec) 

Heartbeat CPU 0 instructions: 60000002 cycles: 23851438 heartbeat IPC: 1.61405 cumulative IPC: 1.61405 (Simulation time: 0 hr 4 min 8 sec) 
Heartbeat CPU 0 instructions: 70000001 cycles: 29879659 heartbeat IPC: 1.65886 cumulative IPC: 1.63615 (Simulation time: 0 hr 4 min 50 sec) 
Heartbeat CPU 0 instructions: 80000001 cycles: 36617330 heartbeat IPC: 1.48419 cumulative IPC: 1.58215 (Simulation time: 0 hr 5 min 28 sec) 
Heartbeat CPU 0 instructions: 90000000 cycles: 45551259 heartbeat IPC: 1.11933 cumulative IPC: 1.43393 (Simulation time: 0 hr 5 min 55 sec) 
Heartbeat CPU 0 instructions: 100000003 cycles: 56398564 heartbeat IPC: 0.921888 cumulative IPC: 1.29056 (Simulation time: 0 hr 6 min 24 sec) 
Finished CPU 0 instructions: 50000000 cycles: 38742729 cumulative IPC: 1.29056 (Simulation time: 0 hr 6 min 24 sec) 

ChampSim completed all CPUs

Region of Interest Statistics

CPU 0 cumulative IPC: 1.29056 instructions: 50000000 cycles: 38742729
L1D TOTAL     ACCESS:   17605583  HIT:   17109708  MISS:     495875
L1D LOAD      ACCESS:    6020982  HIT:    5894502  MISS:     126480
L1D RFO       ACCESS:    5951960  HIT:    5717534  MISS:     234426
L1D PREFETCH  ACCESS:    5632641  HIT:    5497672  MISS:     134969
L1D WRITEBACK ACCESS:          0  HIT:          0  MISS:          0
L1D PREFETCH  REQUESTED:    6062336  ISSUED:    5921654  USEFUL:      67156  USELESS:      67860
L1D AVERAGE MISS LATENCY: 123.056 cycles
L1I TOTAL     ACCESS:   29457684  HIT:   28706217  MISS:     751467
L1I LOAD      ACCESS:    9439133  HIT:    9376256  MISS:      62877
L1I RFO       ACCESS:          0  HIT:          0  MISS:          0
L1I PREFETCH  ACCESS:   20018551  HIT:   19329961  MISS:     688590
L1I WRITEBACK ACCESS:          0  HIT:          0  MISS:          0
L1I PREFETCH  REQUESTED:   27443570  ISSUED:   27443570  USEFUL:     482609  USELESS:     206050
L1I AVERAGE MISS LATENCY: 20.9743 cycles
L2C TOTAL     ACCESS:    1880484  HIT:    1479318  MISS:     401166
L2C LOAD      ACCESS:     138183  HIT:      97232  MISS:      40951
L2C RFO       ACCESS:     232363  HIT:      25316  MISS:     207047
L2C PREFETCH  ACCESS:    1240643  HIT:    1088586  MISS:     152057
L2C WRITEBACK ACCESS:     269295  HIT:     268184  MISS:       1111
L2C PREFETCH  REQUESTED:    1341188  ISSUED:    1340416  USEFUL:      10933  USELESS:     141290
L2C AVERAGE MISS LATENCY: 166.812 cycles
LLC TOTAL     ACCESS:     986832  HIT:     700355  MISS:     286477
LLC LOAD      ACCESS:      40860  HIT:      28701  MISS:      12159
LLC RFO       ACCESS:     207039  HIT:      34843  MISS:     172196
LLC PREFETCH  ACCESS:     514424  HIT:     412666  MISS:     101758
LLC WRITEBACK ACCESS:     224509  HIT:     224145  MISS:        364
LLC PREFETCH  REQUESTED:          0  ISSUED:          0  USEFUL:      10686  USELESS:      91454
LLC AVERAGE MISS LATENCY: 232.331 cycles
Major fault: 0 Minor fault: 5044
CPU 0 L1I EPI prefetcher final stats
CPU 0 L1D next line prefetcher final stats

DRAM Statistics
 CHANNEL 0
 RQ ROW_BUFFER_HIT:     101423  ROW_BUFFER_MISS:     184683
 DBUS_CONGESTED:     258280
 WQ ROW_BUFFER_HIT:      59044  ROW_BUFFER_MISS:     120068  FULL:          0

 AVG_CONGESTED_CYCLE: 6

CPU 0 Branch Prediction Accuracy: 98.6631% MPKI: 2.66884 Average ROB Occupancy at Mispredict: 81.2732

Branch types
NOT_BRANCH: 40018780 80.0376%
BRANCH_DIRECT_JUMP: 370861 0.741722%
BRANCH_INDIRECT: 83253 0.166506%
BRANCH_CONDITIONAL: 7877436 15.7549%
BRANCH_DIRECT_CALL: 722316 1.44463%
BRANCH_INDIRECT_CALL: 101901 0.203802%
BRANCH_RETURN: 825355 1.65071%
BRANCH_OTHER: 0 0%

