Initialize SIGNATURE TABLE
ST_SET: 1
ST_WAY: 256
ST_TAG_BIT: 16
ST_TAG_MASK: ffff

Initialize PATTERN TABLE
PT_SET: 512
PT_WAY: 4
SIG_DELTA_BIT: 7
C_SIG_BIT: 4
C_DELTA_BIT: 4

Initialize PREFETCH FILTER
FILTER_SET: 1024

*** ChampSim Multicore Out-of-Order Simulator ***

Warmup Instructions: 50000000
Simulation Instructions: 50000000
Number of CPUs: 1
LLC sets: 2048
LLC ways: 16
Off-chip DRAM Size: 4096 MB Channels: 1 Width: 64-bit Data Rate: 3200 MT/s

CPU 0 runs /home/tapatil/CSE240C/SA1/ChampSim-master/ipc1_public/client_002.champsimtrace.xz
L1I D-JOLT instruction prefetcher has been constructed!
CPU 0 L1D next line prefetcher
Heartbeat CPU 0 instructions: 10000000 cycles: 3404777 heartbeat IPC: 2.93705 cumulative IPC: 2.93705 (Simulation time: 0 hr 0 min 30 sec) 
Heartbeat CPU 0 instructions: 20000002 cycles: 6860001 heartbeat IPC: 2.89417 cumulative IPC: 2.91545 (Simulation time: 0 hr 1 min 1 sec) 
Heartbeat CPU 0 instructions: 30000001 cycles: 10292619 heartbeat IPC: 2.91323 cumulative IPC: 2.91471 (Simulation time: 0 hr 1 min 32 sec) 
Heartbeat CPU 0 instructions: 40000002 cycles: 13724987 heartbeat IPC: 2.91344 cumulative IPC: 2.91439 (Simulation time: 0 hr 2 min 3 sec) 
Heartbeat CPU 0 instructions: 50000002 cycles: 17165319 heartbeat IPC: 2.9067 cumulative IPC: 2.91285 (Simulation time: 0 hr 2 min 34 sec) 

Warmup complete CPU 0 instructions: 50000002 cycles: 17165319 (Simulation time: 0 hr 2 min 34 sec) 

Heartbeat CPU 0 instructions: 60000002 cycles: 23094452 heartbeat IPC: 1.68659 cumulative IPC: 1.68659 (Simulation time: 0 hr 3 min 5 sec) 
Heartbeat CPU 0 instructions: 70000001 cycles: 29071026 heartbeat IPC: 1.6732 cumulative IPC: 1.67987 (Simulation time: 0 hr 3 min 35 sec) 
Heartbeat CPU 0 instructions: 80000002 cycles: 34931659 heartbeat IPC: 1.7063 cumulative IPC: 1.68859 (Simulation time: 0 hr 4 min 5 sec) 
Heartbeat CPU 0 instructions: 90000000 cycles: 41380077 heartbeat IPC: 1.55077 cumulative IPC: 1.65189 (Simulation time: 0 hr 4 min 34 sec) 
Heartbeat CPU 0 instructions: 100000003 cycles: 47303539 heartbeat IPC: 1.6882 cumulative IPC: 1.65902 (Simulation time: 0 hr 5 min 4 sec) 
Finished CPU 0 instructions: 50000001 cycles: 30138220 cumulative IPC: 1.65902 (Simulation time: 0 hr 5 min 4 sec) 

ChampSim completed all CPUs

Region of Interest Statistics

CPU 0 cumulative IPC: 1.65902 instructions: 50000001 cycles: 30138220
L1D TOTAL     ACCESS:   19067301  HIT:   18728084  MISS:     339217
L1D LOAD      ACCESS:    6455048  HIT:    6337701  MISS:     117347
L1D RFO       ACCESS:    6418054  HIT:    6328152  MISS:      89902
L1D PREFETCH  ACCESS:    6194199  HIT:    6062231  MISS:     131968
L1D WRITEBACK ACCESS:          0  HIT:          0  MISS:          0
L1D PREFETCH  REQUESTED:    6465154  ISSUED:    6264197  USEFUL:      53183  USELESS:      78927
L1D AVERAGE MISS LATENCY: 49.1234 cycles
L1I TOTAL     ACCESS:   15785639  HIT:   14157115  MISS:    1628524
L1I LOAD      ACCESS:    9548688  HIT:    9509642  MISS:      39046
L1I RFO       ACCESS:          0  HIT:          0  MISS:          0
L1I PREFETCH  ACCESS:    6236951  HIT:    4647473  MISS:    1589478
L1I WRITEBACK ACCESS:          0  HIT:          0  MISS:          0
L1I PREFETCH  REQUESTED:    6527906  ISSUED:    6396556  USEFUL:     894330  USELESS:     695174
L1I AVERAGE MISS LATENCY: 16.6106 cycles
L2C TOTAL     ACCESS:    2758166  HIT:    2506140  MISS:     252026
L2C LOAD      ACCESS:     134646  HIT:      92227  MISS:      42419
L2C RFO       ACCESS:      88841  HIT:      22743  MISS:      66098
L2C PREFETCH  ACCESS:    2409174  HIT:    2266127  MISS:     143047
L2C WRITEBACK ACCESS:     125505  HIT:     125043  MISS:        462
L2C PREFETCH  REQUESTED:    1500215  ISSUED:    1499763  USEFUL:      12552  USELESS:     129975
L2C AVERAGE MISS LATENCY: 62.5185 cycles
LLC TOTAL     ACCESS:     681678  HIT:     611616  MISS:      70062
LLC LOAD      ACCESS:      42417  HIT:      36203  MISS:       6214
LLC RFO       ACCESS:      66098  HIT:      36514  MISS:      29584
LLC PREFETCH  ACCESS:     488696  HIT:     454709  MISS:      33987
LLC WRITEBACK ACCESS:      84467  HIT:      84190  MISS:        277
LLC PREFETCH  REQUESTED:          0  ISSUED:          0  USEFUL:       5795  USELESS:      27809
LLC AVERAGE MISS LATENCY: 175.566 cycles
Major fault: 0 Minor fault: 3093
CPU 0 L1D next line prefetcher final stats

DRAM Statistics
 CHANNEL 0
 RQ ROW_BUFFER_HIT:      23069  ROW_BUFFER_MISS:      46716
 DBUS_CONGESTED:      41267
 WQ ROW_BUFFER_HIT:       8647  ROW_BUFFER_MISS:      27970  FULL:          0

 AVG_CONGESTED_CYCLE: 6

CPU 0 Branch Prediction Accuracy: 99.2117% MPKI: 1.49752 Average ROB Occupancy at Mispredict: 119.279

Branch types
NOT_BRANCH: 40501616 81.0032%
BRANCH_DIRECT_JUMP: 517397 1.03479%
BRANCH_INDIRECT: 112348 0.224696%
BRANCH_CONDITIONAL: 6698737 13.3975%
BRANCH_DIRECT_CALL: 960974 1.92195%
BRANCH_INDIRECT_CALL: 123707 0.247414%
BRANCH_RETURN: 1084929 2.16986%
BRANCH_OTHER: 0 0%

