Initialize SIGNATURE TABLE
ST_SET: 1
ST_WAY: 256
ST_TAG_BIT: 16
ST_TAG_MASK: ffff

Initialize PATTERN TABLE
PT_SET: 512
PT_WAY: 4
SIG_DELTA_BIT: 7
C_SIG_BIT: 4
C_DELTA_BIT: 4

Initialize PREFETCH FILTER
FILTER_SET: 1024

*** ChampSim Multicore Out-of-Order Simulator ***

Warmup Instructions: 50000000
Simulation Instructions: 50000000
Number of CPUs: 1
LLC sets: 2048
LLC ways: 16
Off-chip DRAM Size: 4096 MB Channels: 1 Width: 64-bit Data Rate: 3200 MT/s

CPU 0 runs /home/tapatil/CSE240C/SA1/ChampSim-master/ipc1_public/client_003.champsimtrace.xz
CPU 0 EPI prefetcher
CPU 0 L1D next line prefetcher
Heartbeat CPU 0 instructions: 10000000 cycles: 3478744 heartbeat IPC: 2.8746 cumulative IPC: 2.8746 (Simulation time: 0 hr 0 min 41 sec) 
Heartbeat CPU 0 instructions: 20000002 cycles: 6933856 heartbeat IPC: 2.89426 cumulative IPC: 2.8844 (Simulation time: 0 hr 1 min 24 sec) 
Heartbeat CPU 0 instructions: 30000003 cycles: 10495187 heartbeat IPC: 2.80794 cumulative IPC: 2.85845 (Simulation time: 0 hr 2 min 7 sec) 
Heartbeat CPU 0 instructions: 40000001 cycles: 14111885 heartbeat IPC: 2.76495 cumulative IPC: 2.83449 (Simulation time: 0 hr 2 min 50 sec) 
Heartbeat CPU 0 instructions: 50000003 cycles: 17657483 heartbeat IPC: 2.8204 cumulative IPC: 2.83166 (Simulation time: 0 hr 3 min 33 sec) 

Warmup complete CPU 0 instructions: 50000003 cycles: 17657483 (Simulation time: 0 hr 3 min 33 sec) 

Heartbeat CPU 0 instructions: 60000002 cycles: 23853194 heartbeat IPC: 1.61402 cumulative IPC: 1.61402 (Simulation time: 0 hr 4 min 15 sec) 
Heartbeat CPU 0 instructions: 70000001 cycles: 29880933 heartbeat IPC: 1.659 cumulative IPC: 1.6362 (Simulation time: 0 hr 4 min 58 sec) 
Heartbeat CPU 0 instructions: 80000001 cycles: 36619986 heartbeat IPC: 1.48389 cumulative IPC: 1.58207 (Simulation time: 0 hr 5 min 39 sec) 
Heartbeat CPU 0 instructions: 90000000 cycles: 45554353 heartbeat IPC: 1.11927 cumulative IPC: 1.43385 (Simulation time: 0 hr 6 min 6 sec) 
Heartbeat CPU 0 instructions: 100000003 cycles: 56401892 heartbeat IPC: 0.921868 cumulative IPC: 1.29051 (Simulation time: 0 hr 6 min 36 sec) 
Finished CPU 0 instructions: 50000000 cycles: 38744409 cumulative IPC: 1.29051 (Simulation time: 0 hr 6 min 36 sec) 

ChampSim completed all CPUs

Region of Interest Statistics

CPU 0 cumulative IPC: 1.29051 instructions: 50000000 cycles: 38744409
L1D TOTAL     ACCESS:   17603306  HIT:   17107373  MISS:     495933
L1D LOAD      ACCESS:    6023033  HIT:    5896380  MISS:     126653
L1D RFO       ACCESS:    5945949  HIT:    5711508  MISS:     234441
L1D PREFETCH  ACCESS:    5634324  HIT:    5499485  MISS:     134839
L1D WRITEBACK ACCESS:          0  HIT:          0  MISS:          0
L1D PREFETCH  REQUESTED:    6064374  ISSUED:    5923646  USEFUL:      66992  USELESS:      67895
L1D AVERAGE MISS LATENCY: 124.155 cycles
L1I TOTAL     ACCESS:   33246959  HIT:   32081662  MISS:    1165297
L1I LOAD      ACCESS:    9455861  HIT:    9398042  MISS:      57819
L1I RFO       ACCESS:          0  HIT:          0  MISS:          0
L1I PREFETCH  ACCESS:   23791098  HIT:   22683620  MISS:    1107478
L1I WRITEBACK ACCESS:          0  HIT:          0  MISS:          0
L1I PREFETCH  REQUESTED:   31857984  ISSUED:   31857984  USEFUL:     576408  USELESS:     531151
L1I AVERAGE MISS LATENCY: 19.4062 cycles
L2C TOTAL     ACCESS:    2493449  HIT:    2080496  MISS:     412953
L2C LOAD      ACCESS:     135229  HIT:      93914  MISS:      41315
L2C RFO       ACCESS:     232367  HIT:      24407  MISS:     207960
L2C PREFETCH  ACCESS:    1856568  HIT:    1694226  MISS:     162342
L2C WRITEBACK ACCESS:     269285  HIT:     267949  MISS:       1336
L2C PREFETCH  REQUESTED:    1785160  ISSUED:    1784084  USEFUL:      11707  USELESS:     150717
L2C AVERAGE MISS LATENCY: 165.174 cycles
LLC TOTAL     ACCESS:    1036248  HIT:     747802  MISS:     288446
LLC LOAD      ACCESS:      41196  HIT:      29244  MISS:      11952
LLC RFO       ACCESS:     207954  HIT:      35166  MISS:     172788
LLC PREFETCH  ACCESS:     561481  HIT:     458170  MISS:     103311
LLC WRITEBACK ACCESS:     225617  HIT:     225222  MISS:        395
LLC PREFETCH  REQUESTED:          0  ISSUED:          0  USEFUL:      10875  USELESS:      92788
LLC AVERAGE MISS LATENCY: 235.739 cycles
Major fault: 0 Minor fault: 5046
CPU 0 L1I EPI prefetcher final stats
CPU 0 L1D next line prefetcher final stats

DRAM Statistics
 CHANNEL 0
 RQ ROW_BUFFER_HIT:     101598  ROW_BUFFER_MISS:     186451
 DBUS_CONGESTED:     259516
 WQ ROW_BUFFER_HIT:      58505  ROW_BUFFER_MISS:     120910  FULL:          0

 AVG_CONGESTED_CYCLE: 6

CPU 0 Branch Prediction Accuracy: 98.6631% MPKI: 2.66884 Average ROB Occupancy at Mispredict: 81.0679

Branch types
NOT_BRANCH: 40018780 80.0376%
BRANCH_DIRECT_JUMP: 370861 0.741722%
BRANCH_INDIRECT: 83253 0.166506%
BRANCH_CONDITIONAL: 7877436 15.7549%
BRANCH_DIRECT_CALL: 722316 1.44463%
BRANCH_INDIRECT_CALL: 101901 0.203802%
BRANCH_RETURN: 825355 1.65071%
BRANCH_OTHER: 0 0%

