Initialize SIGNATURE TABLE
ST_SET: 1
ST_WAY: 256
ST_TAG_BIT: 16
ST_TAG_MASK: ffff

Initialize PATTERN TABLE
PT_SET: 512
PT_WAY: 4
SIG_DELTA_BIT: 7
C_SIG_BIT: 4
C_DELTA_BIT: 4

Initialize PREFETCH FILTER
FILTER_SET: 1024

*** ChampSim Multicore Out-of-Order Simulator ***

Warmup Instructions: 50000000
Simulation Instructions: 50000000
Number of CPUs: 1
LLC sets: 2048
LLC ways: 16
Off-chip DRAM Size: 4096 MB Channels: 1 Width: 64-bit Data Rate: 3200 MT/s

CPU 0 runs /home/tapatil/CSE240C/SA1/ChampSim-master/ipc1_public/client_004.champsimtrace.xz
L1I D-JOLT instruction prefetcher has been constructed!
CPU 0 L1D next line prefetcher
Heartbeat CPU 0 instructions: 10000000 cycles: 3592511 heartbeat IPC: 2.78357 cumulative IPC: 2.78357 (Simulation time: 0 hr 0 min 31 sec) 
Heartbeat CPU 0 instructions: 20000003 cycles: 7056977 heartbeat IPC: 2.88645 cumulative IPC: 2.83408 (Simulation time: 0 hr 1 min 2 sec) 
Heartbeat CPU 0 instructions: 30000000 cycles: 10647758 heartbeat IPC: 2.78491 cumulative IPC: 2.81749 (Simulation time: 0 hr 1 min 33 sec) 
Heartbeat CPU 0 instructions: 40000003 cycles: 14328252 heartbeat IPC: 2.71703 cumulative IPC: 2.79169 (Simulation time: 0 hr 2 min 4 sec) 
Heartbeat CPU 0 instructions: 50000001 cycles: 17847649 heartbeat IPC: 2.8414 cumulative IPC: 2.80149 (Simulation time: 0 hr 2 min 36 sec) 

Warmup complete CPU 0 instructions: 50000001 cycles: 17847649 (Simulation time: 0 hr 2 min 36 sec) 

Heartbeat CPU 0 instructions: 60000002 cycles: 25848595 heartbeat IPC: 1.24985 cumulative IPC: 1.24985 (Simulation time: 0 hr 3 min 3 sec) 
Heartbeat CPU 0 instructions: 70000001 cycles: 33884527 heartbeat IPC: 1.24441 cumulative IPC: 1.24713 (Simulation time: 0 hr 3 min 33 sec) 
Heartbeat CPU 0 instructions: 80000002 cycles: 42910118 heartbeat IPC: 1.10796 cumulative IPC: 1.19701 (Simulation time: 0 hr 4 min 1 sec) 
Heartbeat CPU 0 instructions: 90000000 cycles: 51236721 heartbeat IPC: 1.20097 cumulative IPC: 1.198 (Simulation time: 0 hr 4 min 29 sec) 
Heartbeat CPU 0 instructions: 100000000 cycles: 59417897 heartbeat IPC: 1.22232 cumulative IPC: 1.20278 (Simulation time: 0 hr 4 min 57 sec) 
Finished CPU 0 instructions: 50000000 cycles: 41570249 cumulative IPC: 1.20278 (Simulation time: 0 hr 4 min 57 sec) 

ChampSim completed all CPUs

Region of Interest Statistics

CPU 0 cumulative IPC: 1.20278 instructions: 50000000 cycles: 41570249
L1D TOTAL     ACCESS:   21960046  HIT:   21071087  MISS:     888959
L1D LOAD      ACCESS:    8721035  HIT:    8325181  MISS:     395854
L1D RFO       ACCESS:    4811306  HIT:    4689945  MISS:     121361
L1D PREFETCH  ACCESS:    8427705  HIT:    8055961  MISS:     371744
L1D WRITEBACK ACCESS:          0  HIT:          0  MISS:          0
L1D PREFETCH  REQUESTED:    8760393  ISSUED:    8600885  USEFUL:     133208  USELESS:     238544
L1D AVERAGE MISS LATENCY: 29.4216 cycles
L1I TOTAL     ACCESS:   13625352  HIT:   12584992  MISS:    1040360
L1I LOAD      ACCESS:    9397327  HIT:    9253740  MISS:     143587
L1I RFO       ACCESS:          0  HIT:          0  MISS:          0
L1I PREFETCH  ACCESS:    4228025  HIT:    3331252  MISS:     896773
L1I WRITEBACK ACCESS:          0  HIT:          0  MISS:          0
L1I PREFETCH  REQUESTED:    4649346  ISSUED:    4558539  USEFUL:     510663  USELESS:     386189
L1I AVERAGE MISS LATENCY: 22.2399 cycles
L2C TOTAL     ACCESS:    2880386  HIT:    2584288  MISS:     296098
L2C LOAD      ACCESS:     507299  HIT:     417693  MISS:      89606
L2C RFO       ACCESS:     117357  HIT:      44888  MISS:      72469
L2C PREFETCH  ACCESS:    2033712  HIT:    1900308  MISS:     133404
L2C WRITEBACK ACCESS:     222018  HIT:     221399  MISS:        619
L2C PREFETCH  REQUESTED:    1589663  ISSUED:    1589000  USEFUL:      29203  USELESS:     103670
L2C AVERAGE MISS LATENCY: 75.3803 cycles
LLC TOTAL     ACCESS:     697253  HIT:     567161  MISS:     130092
LLC LOAD      ACCESS:      89597  HIT:      59911  MISS:      29686
LLC RFO       ACCESS:      72469  HIT:      42074  MISS:      30395
LLC PREFETCH  ACCESS:     434102  HIT:     364336  MISS:      69766
LLC WRITEBACK ACCESS:     101085  HIT:     100840  MISS:        245
LLC PREFETCH  REQUESTED:          0  ISSUED:          0  USEFUL:      25714  USELESS:      46308
LLC AVERAGE MISS LATENCY: 166.51 cycles
Major fault: 0 Minor fault: 3983
CPU 0 L1D next line prefetcher final stats

DRAM Statistics
 CHANNEL 0
 RQ ROW_BUFFER_HIT:      30894  ROW_BUFFER_MISS:      98942
 DBUS_CONGESTED:      54721
 WQ ROW_BUFFER_HIT:      10179  ROW_BUFFER_MISS:      33147  FULL:          0

 AVG_CONGESTED_CYCLE: 5

CPU 0 Branch Prediction Accuracy: 94.1242% MPKI: 11.6089 Average ROB Occupancy at Mispredict: 55.5252

Branch types
NOT_BRANCH: 40121052 80.2421%
BRANCH_DIRECT_JUMP: 644555 1.28911%
BRANCH_INDIRECT: 201946 0.403892%
BRANCH_CONDITIONAL: 7003555 14.0071%
BRANCH_DIRECT_CALL: 564820 1.12964%
BRANCH_INDIRECT_CALL: 445012 0.890024%
BRANCH_RETURN: 1018716 2.03743%
BRANCH_OTHER: 0 0%

