Initialize SIGNATURE TABLE
ST_SET: 1
ST_WAY: 256
ST_TAG_BIT: 16
ST_TAG_MASK: ffff

Initialize PATTERN TABLE
PT_SET: 512
PT_WAY: 4
SIG_DELTA_BIT: 7
C_SIG_BIT: 4
C_DELTA_BIT: 4

Initialize PREFETCH FILTER
FILTER_SET: 1024

*** ChampSim Multicore Out-of-Order Simulator ***

Warmup Instructions: 50000000
Simulation Instructions: 50000000
Number of CPUs: 1
LLC sets: 2048
LLC ways: 16
Off-chip DRAM Size: 4096 MB Channels: 1 Width: 64-bit Data Rate: 3200 MT/s

CPU 0 runs /home/tapatil/CSE240C/SA1/ChampSim-master/ipc1_public/client_001.champsimtrace.xz
CPU 0 EPI prefetcher
CPU 0 L1D next line prefetcher
Heartbeat CPU 0 instructions: 10000003 cycles: 3409933 heartbeat IPC: 2.93261 cumulative IPC: 2.93261 (Simulation time: 0 hr 0 min 34 sec) 
Heartbeat CPU 0 instructions: 20000001 cycles: 7118107 heartbeat IPC: 2.69674 cumulative IPC: 2.80974 (Simulation time: 0 hr 1 min 11 sec) 
Heartbeat CPU 0 instructions: 30000001 cycles: 10480695 heartbeat IPC: 2.9739 cumulative IPC: 2.86241 (Simulation time: 0 hr 1 min 46 sec) 
Heartbeat CPU 0 instructions: 40000003 cycles: 14350219 heartbeat IPC: 2.5843 cumulative IPC: 2.78741 (Simulation time: 0 hr 2 min 21 sec) 
Heartbeat CPU 0 instructions: 50000003 cycles: 17647153 heartbeat IPC: 3.03312 cumulative IPC: 2.83332 (Simulation time: 0 hr 2 min 57 sec) 

Warmup complete CPU 0 instructions: 50000003 cycles: 17647153 (Simulation time: 0 hr 2 min 57 sec) 

Heartbeat CPU 0 instructions: 60000000 cycles: 26657860 heartbeat IPC: 1.10979 cumulative IPC: 1.10979 (Simulation time: 0 hr 3 min 32 sec) 
Heartbeat CPU 0 instructions: 70000000 cycles: 32965439 heartbeat IPC: 1.58539 cumulative IPC: 1.30563 (Simulation time: 0 hr 4 min 5 sec) 
Heartbeat CPU 0 instructions: 80000002 cycles: 42290129 heartbeat IPC: 1.07242 cumulative IPC: 1.21739 (Simulation time: 0 hr 4 min 48 sec) 
Heartbeat CPU 0 instructions: 90000000 cycles: 48457662 heartbeat IPC: 1.62139 cumulative IPC: 1.29826 (Simulation time: 0 hr 5 min 20 sec) 
Heartbeat CPU 0 instructions: 100000002 cycles: 57300580 heartbeat IPC: 1.13085 cumulative IPC: 1.26093 (Simulation time: 0 hr 5 min 52 sec) 
Finished CPU 0 instructions: 50000003 cycles: 39653428 cumulative IPC: 1.26093 (Simulation time: 0 hr 5 min 52 sec) 

ChampSim completed all CPUs

Region of Interest Statistics

CPU 0 cumulative IPC: 1.26093 instructions: 50000003 cycles: 39653428
L1D TOTAL     ACCESS:   21235432  HIT:   20399003  MISS:     836429
L1D LOAD      ACCESS:    8818963  HIT:    8424272  MISS:     394691
L1D RFO       ACCESS:    4041115  HIT:    3982072  MISS:      59043
L1D PREFETCH  ACCESS:    8375354  HIT:    7992659  MISS:     382695
L1D WRITEBACK ACCESS:          0  HIT:          0  MISS:          0
L1D PREFETCH  REQUESTED:    8864154  ISSUED:    8554349  USEFUL:     129673  USELESS:     252996
L1D AVERAGE MISS LATENCY: 47.41 cycles
L1I TOTAL     ACCESS:   32449624  HIT:   32077461  MISS:     372163
L1I LOAD      ACCESS:    8920580  HIT:    8908631  MISS:      11949
L1I RFO       ACCESS:          0  HIT:          0  MISS:          0
L1I PREFETCH  ACCESS:   23529044  HIT:   23168830  MISS:     360214
L1I WRITEBACK ACCESS:          0  HIT:          0  MISS:          0
L1I PREFETCH  REQUESTED:   29424123  ISSUED:   29424123  USEFUL:     292135  USELESS:      67984
L1I AVERAGE MISS LATENCY: 22.3274 cycles
L2C TOTAL     ACCESS:    1854740  HIT:    1551097  MISS:     303643
L2C LOAD      ACCESS:     382972  HIT:     270808  MISS:     112164
L2C RFO       ACCESS:      58290  HIT:      21718  MISS:      36572
L2C PREFETCH  ACCESS:    1223889  HIT:    1069193  MISS:     154696
L2C WRITEBACK ACCESS:     189589  HIT:     189378  MISS:        211
L2C PREFETCH  REQUESTED:    1668832  ISSUED:    1663600  USEFUL:      13822  USELESS:     139827
L2C AVERAGE MISS LATENCY: 105.228 cycles
LLC TOTAL     ACCESS:     801429  HIT:     604583  MISS:     196846
LLC LOAD      ACCESS:     111802  HIT:      70360  MISS:      41442
LLC RFO       ACCESS:      36572  HIT:       8524  MISS:      28048
LLC PREFETCH  ACCESS:     547194  HIT:     420554  MISS:     126640
LLC WRITEBACK ACCESS:     105861  HIT:     105145  MISS:        716
LLC PREFETCH  REQUESTED:          0  ISSUED:          0  USEFUL:      28517  USELESS:     100021
LLC AVERAGE MISS LATENCY: 188.001 cycles
Major fault: 0 Minor fault: 3440
CPU 0 L1I EPI prefetcher final stats
CPU 0 L1D next line prefetcher final stats

DRAM Statistics
 CHANNEL 0
 RQ ROW_BUFFER_HIT:      48024  ROW_BUFFER_MISS:     148096
 DBUS_CONGESTED:     118095
 WQ ROW_BUFFER_HIT:      15624  ROW_BUFFER_MISS:      65301  FULL:          0

 AVG_CONGESTED_CYCLE: 5

CPU 0 Branch Prediction Accuracy: 97.9037% MPKI: 3.63418 Average ROB Occupancy at Mispredict: 86.9909

Branch types
NOT_BRANCH: 41331383 82.6628%
BRANCH_DIRECT_JUMP: 455615 0.91123%
BRANCH_INDIRECT: 20390 0.04078%
BRANCH_CONDITIONAL: 6745374 13.4907%
BRANCH_DIRECT_CALL: 494532 0.989064%
BRANCH_INDIRECT_CALL: 228815 0.45763%
BRANCH_RETURN: 723560 1.44712%
BRANCH_OTHER: 0 0%

