Initialize SIGNATURE TABLE
ST_SET: 1
ST_WAY: 256
ST_TAG_BIT: 16
ST_TAG_MASK: ffff

Initialize PATTERN TABLE
PT_SET: 512
PT_WAY: 4
SIG_DELTA_BIT: 7
C_SIG_BIT: 4
C_DELTA_BIT: 4

Initialize PREFETCH FILTER
FILTER_SET: 1024

*** ChampSim Multicore Out-of-Order Simulator ***

Warmup Instructions: 50000000
Simulation Instructions: 50000000
Number of CPUs: 1
LLC sets: 2048
LLC ways: 16
Off-chip DRAM Size: 4096 MB Channels: 1 Width: 64-bit Data Rate: 3200 MT/s

CPU 0 runs /home/tapatil/CSE240C/SA1/ChampSim-master/ipc1_public/server_010.champsimtrace.xz
L1I D-JOLT instruction prefetcher has been constructed!
CPU 0 L1D next line prefetcher
Heartbeat CPU 0 instructions: 10000000 cycles: 3193766 heartbeat IPC: 3.1311 cumulative IPC: 3.1311 (Simulation time: 0 hr 0 min 31 sec) 
Heartbeat CPU 0 instructions: 20000002 cycles: 6384730 heartbeat IPC: 3.13385 cumulative IPC: 3.13247 (Simulation time: 0 hr 1 min 2 sec) 
Heartbeat CPU 0 instructions: 30000001 cycles: 9579116 heartbeat IPC: 3.13049 cumulative IPC: 3.13181 (Simulation time: 0 hr 1 min 33 sec) 
Heartbeat CPU 0 instructions: 40000000 cycles: 12770114 heartbeat IPC: 3.13382 cumulative IPC: 3.13231 (Simulation time: 0 hr 2 min 4 sec) 
Heartbeat CPU 0 instructions: 50000003 cycles: 15966428 heartbeat IPC: 3.1286 cumulative IPC: 3.13157 (Simulation time: 0 hr 2 min 35 sec) 

Warmup complete CPU 0 instructions: 50000003 cycles: 15966428 (Simulation time: 0 hr 2 min 35 sec) 

Heartbeat CPU 0 instructions: 60000001 cycles: 23146470 heartbeat IPC: 1.39275 cumulative IPC: 1.39275 (Simulation time: 0 hr 3 min 6 sec) 
Heartbeat CPU 0 instructions: 70000000 cycles: 30346012 heartbeat IPC: 1.38898 cumulative IPC: 1.39086 (Simulation time: 0 hr 3 min 35 sec) 
Heartbeat CPU 0 instructions: 80000003 cycles: 37587975 heartbeat IPC: 1.38084 cumulative IPC: 1.3875 (Simulation time: 0 hr 4 min 6 sec) 
Heartbeat CPU 0 instructions: 90000002 cycles: 44617902 heartbeat IPC: 1.42249 cumulative IPC: 1.39609 (Simulation time: 0 hr 4 min 36 sec) 
Heartbeat CPU 0 instructions: 100000003 cycles: 65222643 heartbeat IPC: 0.485325 cumulative IPC: 1.0151 (Simulation time: 0 hr 5 min 26 sec) 
Finished CPU 0 instructions: 50000000 cycles: 49256215 cumulative IPC: 1.0151 (Simulation time: 0 hr 5 min 26 sec) 

ChampSim completed all CPUs

Region of Interest Statistics

CPU 0 cumulative IPC: 1.0151 instructions: 50000000 cycles: 49256215
L1D TOTAL     ACCESS:   19884327  HIT:   16659189  MISS:    3225138
L1D LOAD      ACCESS:    7699116  HIT:    6105961  MISS:    1593155
L1D RFO       ACCESS:    4710268  HIT:    4615958  MISS:      94310
L1D PREFETCH  ACCESS:    7474943  HIT:    5937270  MISS:    1537673
L1D WRITEBACK ACCESS:          0  HIT:          0  MISS:          0
L1D PREFETCH  REQUESTED:    7731905  ISSUED:    7634798  USEFUL:     117186  USELESS:    1420458
L1D AVERAGE MISS LATENCY: 22.7686 cycles
L1I TOTAL     ACCESS:   16841200  HIT:   15144452  MISS:    1696748
L1I LOAD      ACCESS:    9977956  HIT:    9914246  MISS:      63710
L1I RFO       ACCESS:          0  HIT:          0  MISS:          0
L1I PREFETCH  ACCESS:    6863244  HIT:    5230206  MISS:    1633038
L1I WRITEBACK ACCESS:          0  HIT:          0  MISS:          0
L1I PREFETCH  REQUESTED:    7497353  ISSUED:    7232758  USEFUL:    1212590  USELESS:     420392
L1I AVERAGE MISS LATENCY: 30.93 cycles
L2C TOTAL     ACCESS:    6435000  HIT:    5286626  MISS:    1148374
L2C LOAD      ACCESS:    1606084  HIT:    1372480  MISS:     233604
L2C RFO       ACCESS:      93280  HIT:      47958  MISS:      45322
L2C PREFETCH  ACCESS:    4470292  HIT:    3602105  MISS:     868187
L2C WRITEBACK ACCESS:     265344  HIT:     264083  MISS:       1261
L2C PREFETCH  REQUESTED:    5868657  ISSUED:    5865213  USEFUL:      22533  USELESS:     846917
L2C AVERAGE MISS LATENCY: 45.3785 cycles
LLC TOTAL     ACCESS:    2406883  HIT:    2280513  MISS:     126370
LLC LOAD      ACCESS:     233502  HIT:     216542  MISS:      16960
LLC RFO       ACCESS:      45316  HIT:      35634  MISS:       9682
LLC PREFETCH  ACCESS:    1977028  HIT:    1877440  MISS:      99588
LLC WRITEBACK ACCESS:     151037  HIT:     150897  MISS:        140
LLC PREFETCH  REQUESTED:          0  ISSUED:          0  USEFUL:       9746  USELESS:      90122
LLC AVERAGE MISS LATENCY: 176.146 cycles
Major fault: 0 Minor fault: 5607
CPU 0 L1D next line prefetcher final stats

DRAM Statistics
 CHANNEL 0
 RQ ROW_BUFFER_HIT:      19370  ROW_BUFFER_MISS:     106849
 DBUS_CONGESTED:      55914
 WQ ROW_BUFFER_HIT:      10190  ROW_BUFFER_MISS:      44899  FULL:          0

 AVG_CONGESTED_CYCLE: 5

CPU 0 Branch Prediction Accuracy: 99.5528% MPKI: 0.89798 Average ROB Occupancy at Mispredict: 130.977

Branch types
NOT_BRANCH: 39958788 79.9176%
BRANCH_DIRECT_JUMP: 449946 0.899892%
BRANCH_INDIRECT: 140210 0.28042%
BRANCH_CONDITIONAL: 7679677 15.3594%
BRANCH_DIRECT_CALL: 701578 1.40316%
BRANCH_INDIRECT_CALL: 168971 0.337942%
BRANCH_RETURN: 900560 1.80112%
BRANCH_OTHER: 0 0%

