Initialize SIGNATURE TABLE
ST_SET: 1
ST_WAY: 256
ST_TAG_BIT: 16
ST_TAG_MASK: ffff

Initialize PATTERN TABLE
PT_SET: 512
PT_WAY: 4
SIG_DELTA_BIT: 7
C_SIG_BIT: 4
C_DELTA_BIT: 4

Initialize PREFETCH FILTER
FILTER_SET: 1024

*** ChampSim Multicore Out-of-Order Simulator ***

Warmup Instructions: 50000000
Simulation Instructions: 50000000
Number of CPUs: 1
LLC sets: 2048
LLC ways: 16
Off-chip DRAM Size: 4096 MB Channels: 1 Width: 64-bit Data Rate: 3200 MT/s

CPU 0 runs /home/tapatil/CSE240C/SA1/ChampSim-master/ipc1_public/server_032.champsimtrace.xz
L1I D-JOLT instruction prefetcher has been constructed!
CPU 0 L1D next line prefetcher
Heartbeat CPU 0 instructions: 10000002 cycles: 3520981 heartbeat IPC: 2.84012 cumulative IPC: 2.84012 (Simulation time: 0 hr 0 min 34 sec) 
Heartbeat CPU 0 instructions: 20000003 cycles: 7042519 heartbeat IPC: 2.83967 cumulative IPC: 2.83989 (Simulation time: 0 hr 1 min 8 sec) 
Heartbeat CPU 0 instructions: 30000000 cycles: 10564213 heartbeat IPC: 2.83954 cumulative IPC: 2.83978 (Simulation time: 0 hr 1 min 42 sec) 
Heartbeat CPU 0 instructions: 40000003 cycles: 14087425 heartbeat IPC: 2.83832 cumulative IPC: 2.83941 (Simulation time: 0 hr 2 min 16 sec) 
Heartbeat CPU 0 instructions: 50000000 cycles: 17609150 heartbeat IPC: 2.83952 cumulative IPC: 2.83943 (Simulation time: 0 hr 2 min 51 sec) 

Warmup complete CPU 0 instructions: 50000004 cycles: 17609151 (Simulation time: 0 hr 2 min 51 sec) 

Heartbeat CPU 0 instructions: 60000002 cycles: 24302525 heartbeat IPC: 1.49401 cumulative IPC: 1.49401 (Simulation time: 0 hr 3 min 28 sec) 
Heartbeat CPU 0 instructions: 70000000 cycles: 30996607 heartbeat IPC: 1.49386 cumulative IPC: 1.49394 (Simulation time: 0 hr 4 min 6 sec) 
*** Reached end of trace for Core: 0 Repeating trace: /home/tapatil/CSE240C/SA1/ChampSim-master/ipc1_public/server_032.champsimtrace.xz
Heartbeat CPU 0 instructions: 80000003 cycles: 37687637 heartbeat IPC: 1.49454 cumulative IPC: 1.49414 (Simulation time: 0 hr 4 min 43 sec) 
Heartbeat CPU 0 instructions: 90000002 cycles: 44353613 heartbeat IPC: 1.50016 cumulative IPC: 1.49564 (Simulation time: 0 hr 5 min 19 sec) 
Heartbeat CPU 0 instructions: 100000001 cycles: 51028957 heartbeat IPC: 1.49805 cumulative IPC: 1.49612 (Simulation time: 0 hr 5 min 56 sec) 
Finished CPU 0 instructions: 50000002 cycles: 33419808 cumulative IPC: 1.49612 (Simulation time: 0 hr 5 min 56 sec) 

ChampSim completed all CPUs

Region of Interest Statistics

CPU 0 cumulative IPC: 1.49612 instructions: 50000002 cycles: 33419808
L1D TOTAL     ACCESS:   19809781  HIT:   17981678  MISS:    1828103
L1D LOAD      ACCESS:    6763871  HIT:    5967566  MISS:     796305
L1D RFO       ACCESS:    6561559  HIT:    6267940  MISS:     293619
L1D PREFETCH  ACCESS:    6484351  HIT:    5746172  MISS:     738179
L1D WRITEBACK ACCESS:          0  HIT:          0  MISS:          0
L1D PREFETCH  REQUESTED:    6812461  ISSUED:    6673564  USEFUL:     168143  USELESS:     570035
L1D AVERAGE MISS LATENCY: 18.5049 cycles
L1I TOTAL     ACCESS:   17129123  HIT:   13753625  MISS:    3375498
L1I LOAD      ACCESS:    9704265  HIT:    9644547  MISS:      59718
L1I RFO       ACCESS:          0  HIT:          0  MISS:          0
L1I PREFETCH  ACCESS:    7424858  HIT:    4109078  MISS:    3315780
L1I WRITEBACK ACCESS:          0  HIT:          0  MISS:          0
L1I PREFETCH  REQUESTED:    7782542  ISSUED:    7762441  USEFUL:    3129497  USELESS:     186286
L1I AVERAGE MISS LATENCY: 17.1372 cycles
L2C TOTAL     ACCESS:    7518791  HIT:    7031306  MISS:     487485
L2C LOAD      ACCESS:     823807  HIT:     732929  MISS:      90878
L2C RFO       ACCESS:     292321  HIT:     252504  MISS:      39817
L2C PREFETCH  ACCESS:    5766270  HIT:    5411516  MISS:     354754
L2C WRITEBACK ACCESS:     636393  HIT:     634357  MISS:       2036
L2C PREFETCH  REQUESTED:    5230583  ISSUED:    5209646  USEFUL:       2867  USELESS:     351808
L2C AVERAGE MISS LATENCY: 32.3927 cycles
LLC TOTAL     ACCESS:    2357332  HIT:    2350447  MISS:       6885
LLC LOAD      ACCESS:      90808  HIT:      90298  MISS:        510
LLC RFO       ACCESS:      39813  HIT:      39812  MISS:          1
LLC PREFETCH  ACCESS:    2148236  HIT:    2141891  MISS:       6345
LLC WRITEBACK ACCESS:      78475  HIT:      78446  MISS:         29
LLC PREFETCH  REQUESTED:          0  ISSUED:          0  USEFUL:        396  USELESS:       2770
LLC AVERAGE MISS LATENCY: 149.783 cycles
Major fault: 0 Minor fault: 1183
CPU 0 L1D next line prefetcher final stats

DRAM Statistics
 CHANNEL 0
 RQ ROW_BUFFER_HIT:       1797  ROW_BUFFER_MISS:       5059
 DBUS_CONGESTED:        792
 WQ ROW_BUFFER_HIT:          2  ROW_BUFFER_MISS:         38  FULL:          0

 AVG_CONGESTED_CYCLE: 4

CPU 0 Branch Prediction Accuracy: 99.8762% MPKI: 0.2296 Average ROB Occupancy at Mispredict: 183.622

Branch types
NOT_BRANCH: 40726171 81.4523%
BRANCH_DIRECT_JUMP: 508374 1.01675%
BRANCH_INDIRECT: 180051 0.360102%
BRANCH_CONDITIONAL: 5999665 11.9993%
BRANCH_DIRECT_CALL: 1086739 2.17348%
BRANCH_INDIRECT_CALL: 206109 0.412218%
BRANCH_RETURN: 1292837 2.58567%
BRANCH_OTHER: 0 0%

