Initialize SIGNATURE TABLE
ST_SET: 1
ST_WAY: 256
ST_TAG_BIT: 16
ST_TAG_MASK: ffff

Initialize PATTERN TABLE
PT_SET: 512
PT_WAY: 4
SIG_DELTA_BIT: 7
C_SIG_BIT: 4
C_DELTA_BIT: 4

Initialize PREFETCH FILTER
FILTER_SET: 1024

*** ChampSim Multicore Out-of-Order Simulator ***

Warmup Instructions: 50000000
Simulation Instructions: 50000000
Number of CPUs: 1
LLC sets: 2048
LLC ways: 16
Off-chip DRAM Size: 4096 MB Channels: 1 Width: 64-bit Data Rate: 3200 MT/s

CPU 0 runs /home/tapatil/CSE240C/SA1/ChampSim-master/ipc1_public/server_024.champsimtrace.xz
L1I D-JOLT instruction prefetcher has been constructed!
CPU 0 L1D next line prefetcher
Heartbeat CPU 0 instructions: 10000000 cycles: 3498174 heartbeat IPC: 2.85863 cumulative IPC: 2.85863 (Simulation time: 0 hr 0 min 33 sec) 
Heartbeat CPU 0 instructions: 20000002 cycles: 6989253 heartbeat IPC: 2.86444 cumulative IPC: 2.86154 (Simulation time: 0 hr 1 min 5 sec) 
Heartbeat CPU 0 instructions: 30000000 cycles: 10490526 heartbeat IPC: 2.8561 cumulative IPC: 2.85972 (Simulation time: 0 hr 1 min 38 sec) 
Heartbeat CPU 0 instructions: 40000000 cycles: 13988930 heartbeat IPC: 2.85845 cumulative IPC: 2.8594 (Simulation time: 0 hr 2 min 10 sec) 
Heartbeat CPU 0 instructions: 50000001 cycles: 17477224 heartbeat IPC: 2.86673 cumulative IPC: 2.86087 (Simulation time: 0 hr 2 min 43 sec) 

Warmup complete CPU 0 instructions: 50000001 cycles: 17477224 (Simulation time: 0 hr 2 min 43 sec) 

Heartbeat CPU 0 instructions: 60000002 cycles: 24225148 heartbeat IPC: 1.48194 cumulative IPC: 1.48194 (Simulation time: 0 hr 3 min 17 sec) 
Heartbeat CPU 0 instructions: 70000000 cycles: 31013040 heartbeat IPC: 1.47321 cumulative IPC: 1.47756 (Simulation time: 0 hr 3 min 52 sec) 
*** Reached end of trace for Core: 0 Repeating trace: /home/tapatil/CSE240C/SA1/ChampSim-master/ipc1_public/server_024.champsimtrace.xz
Heartbeat CPU 0 instructions: 80000003 cycles: 37784259 heartbeat IPC: 1.47684 cumulative IPC: 1.47732 (Simulation time: 0 hr 4 min 27 sec) 
Heartbeat CPU 0 instructions: 90000003 cycles: 44615463 heartbeat IPC: 1.46387 cumulative IPC: 1.47394 (Simulation time: 0 hr 5 min 2 sec) 
Heartbeat CPU 0 instructions: 100000002 cycles: 51408475 heartbeat IPC: 1.4721 cumulative IPC: 1.47357 (Simulation time: 0 hr 5 min 38 sec) 
Finished CPU 0 instructions: 50000001 cycles: 33931251 cumulative IPC: 1.47357 (Simulation time: 0 hr 5 min 38 sec) 

ChampSim completed all CPUs

Region of Interest Statistics

CPU 0 cumulative IPC: 1.47357 instructions: 50000001 cycles: 33931251
L1D TOTAL     ACCESS:   19649488  HIT:   18132291  MISS:    1517197
L1D LOAD      ACCESS:    6914878  HIT:    6234309  MISS:     680569
L1D RFO       ACCESS:    6150047  HIT:    5876459  MISS:     273588
L1D PREFETCH  ACCESS:    6584563  HIT:    6021523  MISS:     563040
L1D WRITEBACK ACCESS:          0  HIT:          0  MISS:          0
L1D PREFETCH  REQUESTED:    6969346  ISSUED:    6846722  USEFUL:     135762  USELESS:     427283
L1D AVERAGE MISS LATENCY: 25.913 cycles
L1I TOTAL     ACCESS:   15114626  HIT:   12191288  MISS:    2923338
L1I LOAD      ACCESS:    9339538  HIT:    9288604  MISS:      50934
L1I RFO       ACCESS:          0  HIT:          0  MISS:          0
L1I PREFETCH  ACCESS:    5775088  HIT:    2902684  MISS:    2872404
L1I WRITEBACK ACCESS:          0  HIT:          0  MISS:          0
L1I PREFETCH  REQUESTED:    6180272  ISSUED:    6095928  USEFUL:    2486986  USELESS:     385405
L1I AVERAGE MISS LATENCY: 19.6311 cycles
L2C TOTAL     ACCESS:    6181918  HIT:    5357273  MISS:     824645
L2C LOAD      ACCESS:     661258  HIT:     523420  MISS:     137838
L2C RFO       ACCESS:     272092  HIT:     179044  MISS:      93048
L2C PREFETCH  ACCESS:    4728435  HIT:    4141210  MISS:     587225
L2C WRITEBACK ACCESS:     520133  HIT:     513599  MISS:       6534
L2C PREFETCH  REQUESTED:    4221984  ISSUED:    4214432  USEFUL:       9835  USELESS:     577124
L2C AVERAGE MISS LATENCY: 41.6156 cycles
LLC TOTAL     ACCESS:    2138348  HIT:    2084661  MISS:      53687
LLC LOAD      ACCESS:     137588  HIT:     131867  MISS:       5721
LLC RFO       ACCESS:      93039  HIT:      70776  MISS:      22263
LLC PREFETCH  ACCESS:    1753297  HIT:    1727860  MISS:      25437
LLC WRITEBACK ACCESS:     154424  HIT:     154158  MISS:        266
LLC PREFETCH  REQUESTED:          0  ISSUED:          0  USEFUL:       2008  USELESS:      24214
LLC AVERAGE MISS LATENCY: 196.213 cycles
Major fault: 0 Minor fault: 2372
CPU 0 L1D next line prefetcher final stats

DRAM Statistics
 CHANNEL 0
 RQ ROW_BUFFER_HIT:      18109  ROW_BUFFER_MISS:      35302
 DBUS_CONGESTED:      37139
 WQ ROW_BUFFER_HIT:       2530  ROW_BUFFER_MISS:      22561  FULL:          0

 AVG_CONGESTED_CYCLE: 6

CPU 0 Branch Prediction Accuracy: 99.7477% MPKI: 0.46156 Average ROB Occupancy at Mispredict: 174.936

Branch types
NOT_BRANCH: 40853701 81.7074%
BRANCH_DIRECT_JUMP: 566820 1.13364%
BRANCH_INDIRECT: 197171 0.394342%
BRANCH_CONDITIONAL: 6308427 12.6169%
BRANCH_DIRECT_CALL: 876400 1.7528%
BRANCH_INDIRECT_CALL: 160491 0.320982%
BRANCH_RETURN: 1036885 2.07377%
BRANCH_OTHER: 0 0%

