Initialize SIGNATURE TABLE
ST_SET: 1
ST_WAY: 256
ST_TAG_BIT: 16
ST_TAG_MASK: ffff

Initialize PATTERN TABLE
PT_SET: 512
PT_WAY: 4
SIG_DELTA_BIT: 7
C_SIG_BIT: 4
C_DELTA_BIT: 4

Initialize PREFETCH FILTER
FILTER_SET: 1024

*** ChampSim Multicore Out-of-Order Simulator ***

Warmup Instructions: 50000000
Simulation Instructions: 50000000
Number of CPUs: 1
LLC sets: 2048
LLC ways: 16
Off-chip DRAM Size: 4096 MB Channels: 1 Width: 64-bit Data Rate: 3200 MT/s

CPU 0 runs /home/tapatil/CSE240C/SA1/ChampSim-master/ipc1_public/server_030.champsimtrace.xz
CPU 0 EPI prefetcher
CPU 0 L1D next line prefetcher
Heartbeat CPU 0 instructions: 10000003 cycles: 3505607 heartbeat IPC: 2.85257 cumulative IPC: 2.85257 (Simulation time: 0 hr 0 min 40 sec) 
Heartbeat CPU 0 instructions: 20000003 cycles: 7011545 heartbeat IPC: 2.8523 cumulative IPC: 2.85244 (Simulation time: 0 hr 1 min 20 sec) 
Heartbeat CPU 0 instructions: 30000000 cycles: 10516906 heartbeat IPC: 2.85277 cumulative IPC: 2.85255 (Simulation time: 0 hr 2 min 0 sec) 
Heartbeat CPU 0 instructions: 40000002 cycles: 14022640 heartbeat IPC: 2.85247 cumulative IPC: 2.85253 (Simulation time: 0 hr 2 min 41 sec) 
Heartbeat CPU 0 instructions: 50000002 cycles: 17531631 heartbeat IPC: 2.84982 cumulative IPC: 2.85199 (Simulation time: 0 hr 3 min 21 sec) 

Warmup complete CPU 0 instructions: 50000002 cycles: 17531631 (Simulation time: 0 hr 3 min 21 sec) 

Heartbeat CPU 0 instructions: 60000000 cycles: 24491080 heartbeat IPC: 1.4369 cumulative IPC: 1.4369 (Simulation time: 0 hr 4 min 4 sec) 
Heartbeat CPU 0 instructions: 70000000 cycles: 31464660 heartbeat IPC: 1.43398 cumulative IPC: 1.43544 (Simulation time: 0 hr 4 min 47 sec) 
Heartbeat CPU 0 instructions: 80000001 cycles: 38428798 heartbeat IPC: 1.43593 cumulative IPC: 1.4356 (Simulation time: 0 hr 5 min 28 sec) 
*** Reached end of trace for Core: 0 Repeating trace: /home/tapatil/CSE240C/SA1/ChampSim-master/ipc1_public/server_030.champsimtrace.xz
Heartbeat CPU 0 instructions: 90000002 cycles: 45397468 heartbeat IPC: 1.43499 cumulative IPC: 1.43545 (Simulation time: 0 hr 6 min 10 sec) 
Heartbeat CPU 0 instructions: 100000002 cycles: 52340474 heartbeat IPC: 1.4403 cumulative IPC: 1.43642 (Simulation time: 0 hr 6 min 52 sec) 
Finished CPU 0 instructions: 50000000 cycles: 34808843 cumulative IPC: 1.43642 (Simulation time: 0 hr 6 min 52 sec) 

ChampSim completed all CPUs

Region of Interest Statistics

CPU 0 cumulative IPC: 1.43642 instructions: 50000000 cycles: 34808843
L1D TOTAL     ACCESS:   19157833  HIT:   17081999  MISS:    2075834
L1D LOAD      ACCESS:    6764376  HIT:    5711241  MISS:    1053135
L1D RFO       ACCESS:    6174683  HIT:    5888896  MISS:     285787
L1D PREFETCH  ACCESS:    6218774  HIT:    5481862  MISS:     736912
L1D WRITEBACK ACCESS:          0  HIT:          0  MISS:          0
L1D PREFETCH  REQUESTED:    6815243  ISSUED:    6681128  USEFUL:     181435  USELESS:     555570
L1D AVERAGE MISS LATENCY: 18.5889 cycles
L1I TOTAL     ACCESS:   30463301  HIT:   26903253  MISS:    3560048
L1I LOAD      ACCESS:    9802925  HIT:    9761421  MISS:      41504
L1I RFO       ACCESS:          0  HIT:          0  MISS:          0
L1I PREFETCH  ACCESS:   20660376  HIT:   17141832  MISS:    3518544
L1I WRITEBACK ACCESS:          0  HIT:          0  MISS:          0
L1I PREFETCH  REQUESTED:   25916506  ISSUED:   25916506  USEFUL:    2949969  USELESS:     568603
L1I AVERAGE MISS LATENCY: 18.1108 cycles
L2C TOTAL     ACCESS:    7977697  HIT:    7332758  MISS:     644939
L2C LOAD      ACCESS:     909913  HIT:     790583  MISS:     119330
L2C RFO       ACCESS:     283394  HIT:     232920  MISS:      50474
L2C PREFETCH  ACCESS:    6168874  HIT:    5697291  MISS:     471583
L2C WRITEBACK ACCESS:     615516  HIT:     611964  MISS:       3552
L2C PREFETCH  REQUESTED:    6892990  ISSUED:    6873423  USEFUL:       9912  USELESS:     461166
L2C AVERAGE MISS LATENCY: 35.0567 cycles
LLC TOTAL     ACCESS:    2320445  HIT:    2296487  MISS:      23958
LLC LOAD      ACCESS:     119198  HIT:     116228  MISS:       2970
LLC RFO       ACCESS:      50448  HIT:      48678  MISS:       1770
LLC PREFETCH  ACCESS:    2052593  HIT:    2033473  MISS:      19120
LLC WRITEBACK ACCESS:      98206  HIT:      98108  MISS:         98
LLC PREFETCH  REQUESTED:          0  ISSUED:          0  USEFUL:        877  USELESS:      16779
LLC AVERAGE MISS LATENCY: 149.525 cycles
Major fault: 0 Minor fault: 2041
CPU 0 L1I EPI prefetcher final stats
CPU 0 L1D next line prefetcher final stats

DRAM Statistics
 CHANNEL 0
 RQ ROW_BUFFER_HIT:       7195  ROW_BUFFER_MISS:      16665
 DBUS_CONGESTED:       7304
 WQ ROW_BUFFER_HIT:        162  ROW_BUFFER_MISS:       2588  FULL:          0

 AVG_CONGESTED_CYCLE: 5

CPU 0 Branch Prediction Accuracy: 99.8445% MPKI: 0.29148 Average ROB Occupancy at Mispredict: 178.351

Branch types
NOT_BRANCH: 40628081 81.2562%
BRANCH_DIRECT_JUMP: 490941 0.981882%
BRANCH_INDIRECT: 175854 0.351708%
BRANCH_CONDITIONAL: 6321415 12.6428%
BRANCH_DIRECT_CALL: 1002072 2.00414%
BRANCH_INDIRECT_CALL: 189783 0.379566%
BRANCH_RETURN: 1191851 2.3837%
BRANCH_OTHER: 0 0%

