Initialize SIGNATURE TABLE
ST_SET: 1
ST_WAY: 256
ST_TAG_BIT: 16
ST_TAG_MASK: ffff

Initialize PATTERN TABLE
PT_SET: 512
PT_WAY: 4
SIG_DELTA_BIT: 7
C_SIG_BIT: 4
C_DELTA_BIT: 4

Initialize PREFETCH FILTER
FILTER_SET: 1024

*** ChampSim Multicore Out-of-Order Simulator ***

Warmup Instructions: 50000000
Simulation Instructions: 50000000
Number of CPUs: 1
LLC sets: 2048
LLC ways: 16
Off-chip DRAM Size: 4096 MB Channels: 1 Width: 64-bit Data Rate: 3200 MT/s

CPU 0 runs /home/tapatil/CSE240C/SA1/ChampSim-master/ipc1_public/server_012.champsimtrace.xz
L1I D-JOLT instruction prefetcher has been constructed!
CPU 0 L1D next line prefetcher
Heartbeat CPU 0 instructions: 10000002 cycles: 3192829 heartbeat IPC: 3.13202 cumulative IPC: 3.13202 (Simulation time: 0 hr 0 min 32 sec) 
Heartbeat CPU 0 instructions: 20000002 cycles: 6388647 heartbeat IPC: 3.12909 cumulative IPC: 3.13055 (Simulation time: 0 hr 1 min 3 sec) 
Heartbeat CPU 0 instructions: 30000001 cycles: 9586021 heartbeat IPC: 3.12757 cumulative IPC: 3.12956 (Simulation time: 0 hr 1 min 34 sec) 
Heartbeat CPU 0 instructions: 40000000 cycles: 12789179 heartbeat IPC: 3.12192 cumulative IPC: 3.12764 (Simulation time: 0 hr 2 min 6 sec) 
Heartbeat CPU 0 instructions: 50000003 cycles: 15984945 heartbeat IPC: 3.12914 cumulative IPC: 3.12794 (Simulation time: 0 hr 2 min 39 sec) 

Warmup complete CPU 0 instructions: 50000003 cycles: 15984945 (Simulation time: 0 hr 2 min 39 sec) 

Heartbeat CPU 0 instructions: 60000002 cycles: 23100411 heartbeat IPC: 1.40539 cumulative IPC: 1.40539 (Simulation time: 0 hr 3 min 10 sec) 
Heartbeat CPU 0 instructions: 70000000 cycles: 30305187 heartbeat IPC: 1.38797 cumulative IPC: 1.39662 (Simulation time: 0 hr 3 min 41 sec) 
Heartbeat CPU 0 instructions: 80000003 cycles: 37407092 heartbeat IPC: 1.40807 cumulative IPC: 1.40042 (Simulation time: 0 hr 4 min 12 sec) 
Heartbeat CPU 0 instructions: 90000001 cycles: 44769498 heartbeat IPC: 1.35825 cumulative IPC: 1.38963 (Simulation time: 0 hr 4 min 43 sec) 
Heartbeat CPU 0 instructions: 100000002 cycles: 51992297 heartbeat IPC: 1.3845 cumulative IPC: 1.38861 (Simulation time: 0 hr 5 min 15 sec) 
Finished CPU 0 instructions: 50000001 cycles: 36007353 cumulative IPC: 1.38861 (Simulation time: 0 hr 5 min 15 sec) 

ChampSim completed all CPUs

Region of Interest Statistics

CPU 0 cumulative IPC: 1.38861 instructions: 50000001 cycles: 36007353
L1D TOTAL     ACCESS:   17326413  HIT:   16283623  MISS:    1042790
L1D LOAD      ACCESS:    6303987  HIT:    5816535  MISS:     487452
L1D RFO       ACCESS:    4960709  HIT:    4878988  MISS:      81721
L1D PREFETCH  ACCESS:    6061717  HIT:    5588100  MISS:     473617
L1D WRITEBACK ACCESS:          0  HIT:          0  MISS:          0
L1D PREFETCH  REQUESTED:    6337522  ISSUED:    6238506  USEFUL:     133077  USELESS:     340561
L1D AVERAGE MISS LATENCY: 40.4517 cycles
L1I TOTAL     ACCESS:   16453236  HIT:   14472534  MISS:    1980702
L1I LOAD      ACCESS:    8748175  HIT:    8670297  MISS:      77878
L1I RFO       ACCESS:          0  HIT:          0  MISS:          0
L1I PREFETCH  ACCESS:    7705061  HIT:    5802237  MISS:    1902824
L1I WRITEBACK ACCESS:          0  HIT:          0  MISS:          0
L1I PREFETCH  REQUESTED:    8362291  ISSUED:    8058519  USEFUL:    1403023  USELESS:     499841
L1I AVERAGE MISS LATENCY: 30.2599 cycles
L2C TOTAL     ACCESS:    3944912  HIT:    2646427  MISS:    1298485
L2C LOAD      ACCESS:     503047  HIT:     237894  MISS:     265153
L2C RFO       ACCESS:      80639  HIT:      31051  MISS:      49588
L2C PREFETCH  ACCESS:    3085758  HIT:    2103709  MISS:     982049
L2C WRITEBACK ACCESS:     275468  HIT:     273773  MISS:       1695
L2C PREFETCH  REQUESTED:    2918997  ISSUED:    2915580  USEFUL:      26199  USELESS:     955947
L2C AVERAGE MISS LATENCY: 45.0886 cycles
LLC TOTAL     ACCESS:    2401938  HIT:    2253943  MISS:     147995
LLC LOAD      ACCESS:     265047  HIT:     245926  MISS:      19121
LLC RFO       ACCESS:      49588  HIT:      40094  MISS:       9494
LLC PREFETCH  ACCESS:    1917902  HIT:    1798860  MISS:     119042
LLC WRITEBACK ACCESS:     169401  HIT:     169063  MISS:        338
LLC PREFETCH  REQUESTED:          0  ISSUED:          0  USEFUL:      10934  USELESS:     108221
LLC AVERAGE MISS LATENCY: 173.76 cycles
Major fault: 0 Minor fault: 5611
CPU 0 L1D next line prefetcher final stats

DRAM Statistics
 CHANNEL 0
 RQ ROW_BUFFER_HIT:      22603  ROW_BUFFER_MISS:     125038
 DBUS_CONGESTED:      61944
 WQ ROW_BUFFER_HIT:      11202  ROW_BUFFER_MISS:      47705  FULL:          0

 AVG_CONGESTED_CYCLE: 5

CPU 0 Branch Prediction Accuracy: 99.4607% MPKI: 1.00288 Average ROB Occupancy at Mispredict: 125.419

Branch types
NOT_BRANCH: 40701161 81.4023%
BRANCH_DIRECT_JUMP: 469810 0.93962%
BRANCH_INDIRECT: 153732 0.307464%
BRANCH_CONDITIONAL: 6944091 13.8882%
BRANCH_DIRECT_CALL: 679880 1.35976%
BRANCH_INDIRECT_CALL: 168745 0.33749%
BRANCH_RETURN: 882493 1.76499%
BRANCH_OTHER: 0 0%

