Initialize SIGNATURE TABLE
ST_SET: 1
ST_WAY: 256
ST_TAG_BIT: 16
ST_TAG_MASK: ffff

Initialize PATTERN TABLE
PT_SET: 512
PT_WAY: 4
SIG_DELTA_BIT: 7
C_SIG_BIT: 4
C_DELTA_BIT: 4

Initialize PREFETCH FILTER
FILTER_SET: 1024

*** ChampSim Multicore Out-of-Order Simulator ***

Warmup Instructions: 50000000
Simulation Instructions: 50000000
Number of CPUs: 1
LLC sets: 2048
LLC ways: 16
Off-chip DRAM Size: 4096 MB Channels: 1 Width: 64-bit Data Rate: 3200 MT/s

CPU 0 runs /home/tapatil/CSE240C/SA1/ChampSim-master/ipc1_public/server_030.champsimtrace.xz
L1I D-JOLT instruction prefetcher has been constructed!
CPU 0 L1D next line prefetcher
Heartbeat CPU 0 instructions: 10000003 cycles: 3505131 heartbeat IPC: 2.85296 cumulative IPC: 2.85296 (Simulation time: 0 hr 0 min 35 sec) 
Heartbeat CPU 0 instructions: 20000003 cycles: 7010119 heartbeat IPC: 2.85308 cumulative IPC: 2.85302 (Simulation time: 0 hr 1 min 9 sec) 
Heartbeat CPU 0 instructions: 30000000 cycles: 10514773 heartbeat IPC: 2.85335 cumulative IPC: 2.85313 (Simulation time: 0 hr 1 min 42 sec) 
Heartbeat CPU 0 instructions: 40000002 cycles: 14019973 heartbeat IPC: 2.8529 cumulative IPC: 2.85307 (Simulation time: 0 hr 2 min 16 sec) 
Heartbeat CPU 0 instructions: 50000002 cycles: 17527747 heartbeat IPC: 2.85081 cumulative IPC: 2.85262 (Simulation time: 0 hr 2 min 50 sec) 

Warmup complete CPU 0 instructions: 50000002 cycles: 17527747 (Simulation time: 0 hr 2 min 50 sec) 

Heartbeat CPU 0 instructions: 60000000 cycles: 24591724 heartbeat IPC: 1.41563 cumulative IPC: 1.41563 (Simulation time: 0 hr 3 min 27 sec) 
Heartbeat CPU 0 instructions: 70000000 cycles: 31666721 heartbeat IPC: 1.41343 cumulative IPC: 1.41453 (Simulation time: 0 hr 4 min 4 sec) 
Heartbeat CPU 0 instructions: 80000001 cycles: 38738945 heartbeat IPC: 1.41398 cumulative IPC: 1.41435 (Simulation time: 0 hr 4 min 40 sec) 
*** Reached end of trace for Core: 0 Repeating trace: /home/tapatil/CSE240C/SA1/ChampSim-master/ipc1_public/server_030.champsimtrace.xz
Heartbeat CPU 0 instructions: 90000002 cycles: 45804833 heartbeat IPC: 1.41525 cumulative IPC: 1.41457 (Simulation time: 0 hr 5 min 17 sec) 
Heartbeat CPU 0 instructions: 100000002 cycles: 52871705 heartbeat IPC: 1.41505 cumulative IPC: 1.41467 (Simulation time: 0 hr 5 min 53 sec) 
Finished CPU 0 instructions: 50000000 cycles: 35343958 cumulative IPC: 1.41467 (Simulation time: 0 hr 5 min 53 sec) 

ChampSim completed all CPUs

Region of Interest Statistics

CPU 0 cumulative IPC: 1.41467 instructions: 50000000 cycles: 35343958
L1D TOTAL     ACCESS:   19144461  HIT:   17068570  MISS:    2075891
L1D LOAD      ACCESS:    6760870  HIT:    5706444  MISS:    1054426
L1D RFO       ACCESS:    6169712  HIT:    5883119  MISS:     286593
L1D PREFETCH  ACCESS:    6213879  HIT:    5479007  MISS:     734872
L1D WRITEBACK ACCESS:          0  HIT:          0  MISS:          0
L1D PREFETCH  REQUESTED:    6814652  ISSUED:    6680245  USEFUL:     179462  USELESS:     555503
L1D AVERAGE MISS LATENCY: 19.2279 cycles
L1I TOTAL     ACCESS:   16611012  HIT:   13213535  MISS:    3397477
L1I LOAD      ACCESS:    9824913  HIT:    9776553  MISS:      48360
L1I RFO       ACCESS:          0  HIT:          0  MISS:          0
L1I PREFETCH  ACCESS:    6786099  HIT:    3436982  MISS:    3349117
L1I WRITEBACK ACCESS:          0  HIT:          0  MISS:          0
L1I PREFETCH  REQUESTED:    7230125  ISSUED:    7144749  USEFUL:    2940750  USELESS:     408402
L1I AVERAGE MISS LATENCY: 19.7136 cycles
L2C TOTAL     ACCESS:    7722561  HIT:    6832795  MISS:     889766
L2C LOAD      ACCESS:     932373  HIT:     787825  MISS:     144548
L2C RFO       ACCESS:     283585  HIT:     220544  MISS:      63041
L2C PREFETCH  ACCESS:    5891078  HIT:    5213261  MISS:     677817
L2C WRITEBACK ACCESS:     615525  HIT:     611165  MISS:       4360
L2C PREFETCH  REQUESTED:    5423350  ISSUED:    5413490  USEFUL:      10029  USELESS:     667640
L2C AVERAGE MISS LATENCY: 34.0093 cycles
LLC TOTAL     ACCESS:    2431067  HIT:    2407017  MISS:      24050
LLC LOAD      ACCESS:     144287  HIT:     141246  MISS:       3041
LLC RFO       ACCESS:      63028  HIT:      61193  MISS:       1835
LLC PREFETCH  ACCESS:    2104327  HIT:    2085299  MISS:      19028
LLC WRITEBACK ACCESS:     119425  HIT:     119279  MISS:        146
LLC PREFETCH  REQUESTED:          0  ISSUED:          0  USEFUL:        880  USELESS:      16751
LLC AVERAGE MISS LATENCY: 149.591 cycles
Major fault: 0 Minor fault: 2043
CPU 0 L1D next line prefetcher final stats

DRAM Statistics
 CHANNEL 0
 RQ ROW_BUFFER_HIT:       7012  ROW_BUFFER_MISS:      16892
 DBUS_CONGESTED:       6653
 WQ ROW_BUFFER_HIT:        198  ROW_BUFFER_MISS:       2651  FULL:          0

 AVG_CONGESTED_CYCLE: 5

CPU 0 Branch Prediction Accuracy: 99.8445% MPKI: 0.29148 Average ROB Occupancy at Mispredict: 167.045

Branch types
NOT_BRANCH: 40628075 81.2562%
BRANCH_DIRECT_JUMP: 490941 0.981882%
BRANCH_INDIRECT: 175854 0.351708%
BRANCH_CONDITIONAL: 6321415 12.6428%
BRANCH_DIRECT_CALL: 1002072 2.00414%
BRANCH_INDIRECT_CALL: 189783 0.379566%
BRANCH_RETURN: 1191851 2.3837%
BRANCH_OTHER: 0 0%

