Initialize SIGNATURE TABLE
ST_SET: 1
ST_WAY: 256
ST_TAG_BIT: 16
ST_TAG_MASK: ffff

Initialize PATTERN TABLE
PT_SET: 512
PT_WAY: 4
SIG_DELTA_BIT: 7
C_SIG_BIT: 4
C_DELTA_BIT: 4

Initialize PREFETCH FILTER
FILTER_SET: 1024

*** ChampSim Multicore Out-of-Order Simulator ***

Warmup Instructions: 50000000
Simulation Instructions: 50000000
Number of CPUs: 1
LLC sets: 2048
LLC ways: 16
Off-chip DRAM Size: 4096 MB Channels: 1 Width: 64-bit Data Rate: 3200 MT/s

CPU 0 runs /home/tapatil/CSE240C/SA1/ChampSim-master/ipc1_public/server_016.champsimtrace.xz
L1I D-JOLT instruction prefetcher has been constructed!
CPU 0 L1D next line prefetcher
Heartbeat CPU 0 instructions: 10000000 cycles: 3495697 heartbeat IPC: 2.86066 cumulative IPC: 2.86066 (Simulation time: 0 hr 0 min 32 sec) 
Heartbeat CPU 0 instructions: 20000000 cycles: 6992019 heartbeat IPC: 2.86015 cumulative IPC: 2.8604 (Simulation time: 0 hr 1 min 6 sec) 
Heartbeat CPU 0 instructions: 30000001 cycles: 10483133 heartbeat IPC: 2.86442 cumulative IPC: 2.86174 (Simulation time: 0 hr 1 min 39 sec) 
Heartbeat CPU 0 instructions: 40000000 cycles: 13780873 heartbeat IPC: 3.03238 cumulative IPC: 2.90257 (Simulation time: 0 hr 1 min 56 sec) 
Heartbeat CPU 0 instructions: 50000002 cycles: 17016338 heartbeat IPC: 3.09075 cumulative IPC: 2.93835 (Simulation time: 0 hr 2 min 8 sec) 

Warmup complete CPU 0 instructions: 50000002 cycles: 17016338 (Simulation time: 0 hr 2 min 8 sec) 

Heartbeat CPU 0 instructions: 60000001 cycles: 24971732 heartbeat IPC: 1.25701 cumulative IPC: 1.25701 (Simulation time: 0 hr 2 min 23 sec) 
Heartbeat CPU 0 instructions: 70000001 cycles: 31717396 heartbeat IPC: 1.48243 cumulative IPC: 1.36045 (Simulation time: 0 hr 2 min 58 sec) 
Heartbeat CPU 0 instructions: 80000001 cycles: 38548821 heartbeat IPC: 1.46382 cumulative IPC: 1.39324 (Simulation time: 0 hr 3 min 33 sec) 
Heartbeat CPU 0 instructions: 90000000 cycles: 45185740 heartbeat IPC: 1.50672 cumulative IPC: 1.41998 (Simulation time: 0 hr 4 min 8 sec) 
Heartbeat CPU 0 instructions: 100000000 cycles: 51940949 heartbeat IPC: 1.48034 cumulative IPC: 1.43166 (Simulation time: 0 hr 4 min 44 sec) 
Finished CPU 0 instructions: 50000002 cycles: 34924612 cumulative IPC: 1.43166 (Simulation time: 0 hr 4 min 44 sec) 

ChampSim completed all CPUs

Region of Interest Statistics

CPU 0 cumulative IPC: 1.43166 instructions: 50000002 cycles: 34924612
L1D TOTAL     ACCESS:   17904394  HIT:   16637264  MISS:    1267130
L1D LOAD      ACCESS:    6496231  HIT:    5922494  MISS:     573737
L1D RFO       ACCESS:    5192618  HIT:    4970724  MISS:     221894
L1D PREFETCH  ACCESS:    6215545  HIT:    5744046  MISS:     471499
L1D WRITEBACK ACCESS:          0  HIT:          0  MISS:          0
L1D PREFETCH  REQUESTED:    6539198  ISSUED:    6433453  USEFUL:     112575  USELESS:     358943
L1D AVERAGE MISS LATENCY: 24.1306 cycles
L1I TOTAL     ACCESS:   14668405  HIT:   12239626  MISS:    2428779
L1I LOAD      ACCESS:    9876244  HIT:    9843824  MISS:      32420
L1I RFO       ACCESS:          0  HIT:          0  MISS:          0
L1I PREFETCH  ACCESS:    4792161  HIT:    2395802  MISS:    2396359
L1I WRITEBACK ACCESS:          0  HIT:          0  MISS:          0
L1I PREFETCH  REQUESTED:    5125250  ISSUED:    5065084  USEFUL:    2077794  USELESS:     318554
L1I AVERAGE MISS LATENCY: 19.4613 cycles
L2C TOTAL     ACCESS:    5143915  HIT:    4499076  MISS:     644839
L2C LOAD      ACCESS:     551558  HIT:     441290  MISS:     110268
L2C RFO       ACCESS:     220429  HIT:     151815  MISS:      68614
L2C PREFETCH  ACCESS:    3943739  HIT:    3480953  MISS:     462786
L2C WRITEBACK ACCESS:     428189  HIT:     425018  MISS:       3171
L2C PREFETCH  REQUESTED:    3569283  ISSUED:    3563959  USEFUL:      10548  USELESS:     451133
L2C AVERAGE MISS LATENCY: 39.606 cycles
LLC TOTAL     ACCESS:    1732481  HIT:    1694899  MISS:      37582
LLC LOAD      ACCESS:     110073  HIT:     105763  MISS:       4310
LLC RFO       ACCESS:      68556  HIT:      54931  MISS:      13625
LLC PREFETCH  ACCESS:    1438336  HIT:    1418853  MISS:      19483
LLC WRITEBACK ACCESS:     115516  HIT:     115352  MISS:        164
LLC PREFETCH  REQUESTED:          0  ISSUED:          0  USEFUL:       1689  USELESS:      17814
LLC AVERAGE MISS LATENCY: 177.794 cycles
Major fault: 0 Minor fault: 2372
CPU 0 L1D next line prefetcher final stats

DRAM Statistics
 CHANNEL 0
 RQ ROW_BUFFER_HIT:      11736  ROW_BUFFER_MISS:      25681
 DBUS_CONGESTED:      23328
 WQ ROW_BUFFER_HIT:       1491  ROW_BUFFER_MISS:      14589  FULL:          0

 AVG_CONGESTED_CYCLE: 6

CPU 0 Branch Prediction Accuracy: 99.7225% MPKI: 0.50376 Average ROB Occupancy at Mispredict: 133.608

Branch types
NOT_BRANCH: 40924079 81.8482%
BRANCH_DIRECT_JUMP: 487046 0.974092%
BRANCH_INDIRECT: 169159 0.338318%
BRANCH_CONDITIONAL: 6640844 13.2817%
BRANCH_DIRECT_CALL: 755592 1.51118%
BRANCH_INDIRECT_CALL: 133962 0.267924%
BRANCH_RETURN: 889572 1.77914%
BRANCH_OTHER: 0 0%

