Initialize SIGNATURE TABLE
ST_SET: 1
ST_WAY: 256
ST_TAG_BIT: 16
ST_TAG_MASK: ffff

Initialize PATTERN TABLE
PT_SET: 512
PT_WAY: 4
SIG_DELTA_BIT: 7
C_SIG_BIT: 4
C_DELTA_BIT: 4

Initialize PREFETCH FILTER
FILTER_SET: 1024

*** ChampSim Multicore Out-of-Order Simulator ***

Warmup Instructions: 50000000
Simulation Instructions: 50000000
Number of CPUs: 1
LLC sets: 2048
LLC ways: 16
Off-chip DRAM Size: 4096 MB Channels: 1 Width: 64-bit Data Rate: 3200 MT/s

CPU 0 runs /home/tapatil/CSE240C/SA1/ChampSim-master/ipc1_public/server_024.champsimtrace.xz
L1I D-JOLT instruction prefetcher has been constructed!
CPU 0 L1D next line prefetcher
Heartbeat CPU 0 instructions: 10000000 cycles: 3499062 heartbeat IPC: 2.85791 cumulative IPC: 2.85791 (Simulation time: 0 hr 0 min 33 sec) 
Heartbeat CPU 0 instructions: 20000002 cycles: 6990691 heartbeat IPC: 2.86399 cumulative IPC: 2.86095 (Simulation time: 0 hr 1 min 6 sec) 
Heartbeat CPU 0 instructions: 30000000 cycles: 10492804 heartbeat IPC: 2.85542 cumulative IPC: 2.8591 (Simulation time: 0 hr 1 min 40 sec) 
Heartbeat CPU 0 instructions: 40000000 cycles: 13992333 heartbeat IPC: 2.85753 cumulative IPC: 2.85871 (Simulation time: 0 hr 2 min 12 sec) 
Heartbeat CPU 0 instructions: 50000001 cycles: 17481724 heartbeat IPC: 2.86583 cumulative IPC: 2.86013 (Simulation time: 0 hr 2 min 46 sec) 

Warmup complete CPU 0 instructions: 50000001 cycles: 17481724 (Simulation time: 0 hr 2 min 46 sec) 

Heartbeat CPU 0 instructions: 60000002 cycles: 24236778 heartbeat IPC: 1.48037 cumulative IPC: 1.48037 (Simulation time: 0 hr 3 min 22 sec) 
Heartbeat CPU 0 instructions: 70000000 cycles: 31030575 heartbeat IPC: 1.47193 cumulative IPC: 1.47614 (Simulation time: 0 hr 3 min 57 sec) 
*** Reached end of trace for Core: 0 Repeating trace: /home/tapatil/CSE240C/SA1/ChampSim-master/ipc1_public/server_024.champsimtrace.xz
Heartbeat CPU 0 instructions: 80000003 cycles: 37792933 heartbeat IPC: 1.47877 cumulative IPC: 1.47702 (Simulation time: 0 hr 4 min 31 sec) 
Heartbeat CPU 0 instructions: 90000003 cycles: 44606364 heartbeat IPC: 1.46769 cumulative IPC: 1.47467 (Simulation time: 0 hr 5 min 6 sec) 
Heartbeat CPU 0 instructions: 100000002 cycles: 51386370 heartbeat IPC: 1.47492 cumulative IPC: 1.47472 (Simulation time: 0 hr 5 min 41 sec) 
Finished CPU 0 instructions: 50000001 cycles: 33904646 cumulative IPC: 1.47472 (Simulation time: 0 hr 5 min 41 sec) 

ChampSim completed all CPUs

Region of Interest Statistics

CPU 0 cumulative IPC: 1.47472 instructions: 50000001 cycles: 33904646
L1D TOTAL     ACCESS:   19645221  HIT:   18127836  MISS:    1517385
L1D LOAD      ACCESS:    6913821  HIT:    6233054  MISS:     680767
L1D RFO       ACCESS:    6148942  HIT:    5875355  MISS:     273587
L1D PREFETCH  ACCESS:    6582458  HIT:    6019427  MISS:     563031
L1D WRITEBACK ACCESS:          0  HIT:          0  MISS:          0
L1D PREFETCH  REQUESTED:    6968868  ISSUED:    6845831  USEFUL:     135621  USELESS:     427415
L1D AVERAGE MISS LATENCY: 25.8134 cycles
L1I TOTAL     ACCESS:   15116884  HIT:   12204979  MISS:    2911905
L1I LOAD      ACCESS:    9347532  HIT:    9307974  MISS:      39558
L1I RFO       ACCESS:          0  HIT:          0  MISS:          0
L1I PREFETCH  ACCESS:    5769352  HIT:    2897005  MISS:    2872347
L1I WRITEBACK ACCESS:          0  HIT:          0  MISS:          0
L1I PREFETCH  REQUESTED:    6100984  ISSUED:    6055874  USEFUL:    2495810  USELESS:     376529
L1I AVERAGE MISS LATENCY: 19.4124 cycles
L2C TOTAL     ACCESS:    6169431  HIT:    5378904  MISS:     790527
L2C LOAD      ACCESS:     656023  HIT:     519925  MISS:     136098
L2C RFO       ACCESS:     272168  HIT:     177932  MISS:      94236
L2C PREFETCH  ACCESS:    4721121  HIT:    4167488  MISS:     553633
L2C WRITEBACK ACCESS:     520119  HIT:     513559  MISS:       6560
L2C PREFETCH  REQUESTED:    4186936  ISSUED:    4181850  USEFUL:      10233  USELESS:     543163
L2C AVERAGE MISS LATENCY: 41.9472 cycles
LLC TOTAL     ACCESS:    2117066  HIT:    2063200  MISS:      53866
LLC LOAD      ACCESS:     135878  HIT:     130198  MISS:       5680
LLC RFO       ACCESS:      94230  HIT:      71919  MISS:      22311
LLC PREFETCH  ACCESS:    1735204  HIT:    1709630  MISS:      25574
LLC WRITEBACK ACCESS:     151754  HIT:     151453  MISS:        301
LLC PREFETCH  REQUESTED:          0  ISSUED:          0  USEFUL:       1954  USELESS:      24107
LLC AVERAGE MISS LATENCY: 196.816 cycles
Major fault: 0 Minor fault: 2373
CPU 0 L1D next line prefetcher final stats

DRAM Statistics
 CHANNEL 0
 RQ ROW_BUFFER_HIT:      17963  ROW_BUFFER_MISS:      35590
 DBUS_CONGESTED:      37536
 WQ ROW_BUFFER_HIT:       2488  ROW_BUFFER_MISS:      22844  FULL:          0

 AVG_CONGESTED_CYCLE: 6

CPU 0 Branch Prediction Accuracy: 99.7477% MPKI: 0.46156 Average ROB Occupancy at Mispredict: 175.95

Branch types
NOT_BRANCH: 40853704 81.7074%
BRANCH_DIRECT_JUMP: 566820 1.13364%
BRANCH_INDIRECT: 197171 0.394342%
BRANCH_CONDITIONAL: 6308429 12.6169%
BRANCH_DIRECT_CALL: 876400 1.7528%
BRANCH_INDIRECT_CALL: 160491 0.320982%
BRANCH_RETURN: 1036885 2.07377%
BRANCH_OTHER: 0 0%

