Initialize SIGNATURE TABLE
ST_SET: 1
ST_WAY: 256
ST_TAG_BIT: 16
ST_TAG_MASK: ffff

Initialize PATTERN TABLE
PT_SET: 512
PT_WAY: 4
SIG_DELTA_BIT: 7
C_SIG_BIT: 4
C_DELTA_BIT: 4

Initialize PREFETCH FILTER
FILTER_SET: 1024

*** ChampSim Multicore Out-of-Order Simulator ***

Warmup Instructions: 50000000
Simulation Instructions: 50000000
Number of CPUs: 1
LLC sets: 2048
LLC ways: 16
Off-chip DRAM Size: 4096 MB Channels: 1 Width: 64-bit Data Rate: 3200 MT/s

CPU 0 runs /home/tapatil/CSE240C/SA1/ChampSim-master/ipc1_public/server_013.champsimtrace.xz
L1I D-JOLT instruction prefetcher has been constructed!
CPU 0 L1D next line prefetcher
Heartbeat CPU 0 instructions: 10000000 cycles: 3211534 heartbeat IPC: 3.11378 cumulative IPC: 3.11378 (Simulation time: 0 hr 0 min 31 sec) 
Heartbeat CPU 0 instructions: 20000001 cycles: 6412441 heartbeat IPC: 3.12411 cumulative IPC: 3.11894 (Simulation time: 0 hr 1 min 3 sec) 
Heartbeat CPU 0 instructions: 30000002 cycles: 9617069 heartbeat IPC: 3.12049 cumulative IPC: 3.11945 (Simulation time: 0 hr 1 min 34 sec) 
Heartbeat CPU 0 instructions: 40000002 cycles: 12817017 heartbeat IPC: 3.12505 cumulative IPC: 3.12085 (Simulation time: 0 hr 2 min 5 sec) 
Heartbeat CPU 0 instructions: 50000000 cycles: 16016606 heartbeat IPC: 3.1254 cumulative IPC: 3.12176 (Simulation time: 0 hr 2 min 36 sec) 

Warmup complete CPU 0 instructions: 50000004 cycles: 16016607 (Simulation time: 0 hr 2 min 36 sec) 

Heartbeat CPU 0 instructions: 60000002 cycles: 23582530 heartbeat IPC: 1.32172 cumulative IPC: 1.32172 (Simulation time: 0 hr 3 min 7 sec) 
Heartbeat CPU 0 instructions: 70000002 cycles: 31308411 heartbeat IPC: 1.29435 cumulative IPC: 1.30789 (Simulation time: 0 hr 3 min 38 sec) 
Heartbeat CPU 0 instructions: 80000003 cycles: 38506557 heartbeat IPC: 1.38925 cumulative IPC: 1.33393 (Simulation time: 0 hr 4 min 8 sec) 
Heartbeat CPU 0 instructions: 90000003 cycles: 45881980 heartbeat IPC: 1.35585 cumulative IPC: 1.33934 (Simulation time: 0 hr 4 min 39 sec) 
Heartbeat CPU 0 instructions: 100000003 cycles: 53293504 heartbeat IPC: 1.34925 cumulative IPC: 1.34131 (Simulation time: 0 hr 5 min 10 sec) 
Finished CPU 0 instructions: 50000003 cycles: 37276898 cumulative IPC: 1.34131 (Simulation time: 0 hr 5 min 10 sec) 

ChampSim completed all CPUs

Region of Interest Statistics

CPU 0 cumulative IPC: 1.34131 instructions: 50000003 cycles: 37276898
L1D TOTAL     ACCESS:   17312775  HIT:   16246398  MISS:    1066377
L1D LOAD      ACCESS:    6312879  HIT:    5811816  MISS:     501063
L1D RFO       ACCESS:    4927801  HIT:    4847635  MISS:      80166
L1D PREFETCH  ACCESS:    6072095  HIT:    5586947  MISS:     485148
L1D WRITEBACK ACCESS:          0  HIT:          0  MISS:          0
L1D PREFETCH  REQUESTED:    6347568  ISSUED:    6253210  USEFUL:     133627  USELESS:     351530
L1D AVERAGE MISS LATENCY: 42.6797 cycles
L1I TOTAL     ACCESS:   16625959  HIT:   14479283  MISS:    2146676
L1I LOAD      ACCESS:    8718884  HIT:    8626577  MISS:      92307
L1I RFO       ACCESS:          0  HIT:          0  MISS:          0
L1I PREFETCH  ACCESS:    7907075  HIT:    5852706  MISS:    2054369
L1I WRITEBACK ACCESS:          0  HIT:          0  MISS:          0
L1I PREFETCH  REQUESTED:    8865673  ISSUED:    8234261  USEFUL:    1459073  USELESS:     595216
L1I AVERAGE MISS LATENCY: 30.8733 cycles
L2C TOTAL     ACCESS:    4205651  HIT:    2797758  MISS:    1407893
L2C LOAD      ACCESS:     527841  HIT:     240386  MISS:     287455
L2C RFO       ACCESS:      78836  HIT:      29789  MISS:      49047
L2C PREFETCH  ACCESS:    3323207  HIT:    2253507  MISS:    1069700
L2C WRITEBACK ACCESS:     275767  HIT:     274076  MISS:       1691
L2C PREFETCH  REQUESTED:    3146617  ISSUED:    3143485  USEFUL:      26786  USELESS:    1043064
L2C AVERAGE MISS LATENCY: 46.3686 cycles
LLC TOTAL     ACCESS:    2554434  HIT:    2385526  MISS:     168908
LLC LOAD      ACCESS:     287338  HIT:     263587  MISS:      23751
LLC RFO       ACCESS:      49043  HIT:      38909  MISS:      10134
LLC PREFETCH  ACCESS:    2044508  HIT:    1909781  MISS:     134727
LLC WRITEBACK ACCESS:     173545  HIT:     173249  MISS:        296
LLC PREFETCH  REQUESTED:          0  ISSUED:          0  USEFUL:      12426  USELESS:     121429
LLC AVERAGE MISS LATENCY: 175.332 cycles
Major fault: 0 Minor fault: 6209
CPU 0 L1D next line prefetcher final stats

DRAM Statistics
 CHANNEL 0
 RQ ROW_BUFFER_HIT:      25138  ROW_BUFFER_MISS:     143460
 DBUS_CONGESTED:      71039
 WQ ROW_BUFFER_HIT:      12218  ROW_BUFFER_MISS:      51661  FULL:          0

 AVG_CONGESTED_CYCLE: 5

CPU 0 Branch Prediction Accuracy: 99.4114% MPKI: 1.0933 Average ROB Occupancy at Mispredict: 124.341

Branch types
NOT_BRANCH: 40713279 81.4266%
BRANCH_DIRECT_JUMP: 463701 0.927402%
BRANCH_INDIRECT: 146544 0.293088%
BRANCH_CONDITIONAL: 6981957 13.9639%
BRANCH_DIRECT_CALL: 665005 1.33001%
BRANCH_INDIRECT_CALL: 165152 0.330304%
BRANCH_RETURN: 864314 1.72863%
BRANCH_OTHER: 0 0%

