Initialize SIGNATURE TABLE
ST_SET: 1
ST_WAY: 256
ST_TAG_BIT: 16
ST_TAG_MASK: ffff

Initialize PATTERN TABLE
PT_SET: 512
PT_WAY: 4
SIG_DELTA_BIT: 7
C_SIG_BIT: 4
C_DELTA_BIT: 4

Initialize PREFETCH FILTER
FILTER_SET: 1024

*** ChampSim Multicore Out-of-Order Simulator ***

Warmup Instructions: 50000000
Simulation Instructions: 50000000
Number of CPUs: 1
LLC sets: 2048
LLC ways: 16
Off-chip DRAM Size: 4096 MB Channels: 1 Width: 64-bit Data Rate: 3200 MT/s

CPU 0 runs /home/tapatil/CSE240C/SA1/ChampSim-master/ipc1_public/server_039.champsimtrace.xz
L1I D-JOLT instruction prefetcher has been constructed!
CPU 0 L1D next line prefetcher
Heartbeat CPU 0 instructions: 10000003 cycles: 3451656 heartbeat IPC: 2.89716 cumulative IPC: 2.89716 (Simulation time: 0 hr 0 min 35 sec) 
Heartbeat CPU 0 instructions: 20000002 cycles: 6896318 heartbeat IPC: 2.90304 cumulative IPC: 2.9001 (Simulation time: 0 hr 1 min 10 sec) 
Heartbeat CPU 0 instructions: 30000001 cycles: 10342783 heartbeat IPC: 2.90152 cumulative IPC: 2.90057 (Simulation time: 0 hr 1 min 44 sec) 
Heartbeat CPU 0 instructions: 40000002 cycles: 13784656 heartbeat IPC: 2.9054 cumulative IPC: 2.90178 (Simulation time: 0 hr 2 min 19 sec) 
Heartbeat CPU 0 instructions: 50000001 cycles: 17225892 heartbeat IPC: 2.90593 cumulative IPC: 2.90261 (Simulation time: 0 hr 2 min 53 sec) 

Warmup complete CPU 0 instructions: 50000001 cycles: 17225892 (Simulation time: 0 hr 2 min 53 sec) 

Heartbeat CPU 0 instructions: 60000000 cycles: 23000471 heartbeat IPC: 1.73173 cumulative IPC: 1.73173 (Simulation time: 0 hr 3 min 29 sec) 
Heartbeat CPU 0 instructions: 70000000 cycles: 28774275 heartbeat IPC: 1.73196 cumulative IPC: 1.73184 (Simulation time: 0 hr 4 min 4 sec) 
Heartbeat CPU 0 instructions: 80000000 cycles: 34543779 heartbeat IPC: 1.73325 cumulative IPC: 1.73231 (Simulation time: 0 hr 4 min 39 sec) 
Heartbeat CPU 0 instructions: 90000001 cycles: 40317641 heartbeat IPC: 1.73194 cumulative IPC: 1.73222 (Simulation time: 0 hr 5 min 15 sec) 
Heartbeat CPU 0 instructions: 100000002 cycles: 46099063 heartbeat IPC: 1.72968 cumulative IPC: 1.73171 (Simulation time: 0 hr 5 min 51 sec) 
Finished CPU 0 instructions: 50000001 cycles: 28873171 cumulative IPC: 1.73171 (Simulation time: 0 hr 5 min 51 sec) 

ChampSim completed all CPUs

Region of Interest Statistics

CPU 0 cumulative IPC: 1.73171 instructions: 50000001 cycles: 28873171
L1D TOTAL     ACCESS:   19878636  HIT:   19383883  MISS:     494753
L1D LOAD      ACCESS:    6488063  HIT:    6266385  MISS:     221678
L1D RFO       ACCESS:    7088977  HIT:    7022105  MISS:      66872
L1D PREFETCH  ACCESS:    6301596  HIT:    6095393  MISS:     206203
L1D WRITEBACK ACCESS:          0  HIT:          0  MISS:          0
L1D PREFETCH  REQUESTED:    6504033  ISSUED:    6370662  USEFUL:      50103  USELESS:     156104
L1D AVERAGE MISS LATENCY: 15.0821 cycles
L1I TOTAL     ACCESS:   19567409  HIT:   14343261  MISS:    5224148
L1I LOAD      ACCESS:    9299132  HIT:    9219214  MISS:      79918
L1I RFO       ACCESS:          0  HIT:          0  MISS:          0
L1I PREFETCH  ACCESS:   10268277  HIT:    5124047  MISS:    5144230
L1I WRITEBACK ACCESS:          0  HIT:          0  MISS:          0
L1I PREFETCH  REQUESTED:   10951341  ISSUED:   10675441  USEFUL:    4188392  USELESS:     955842
L1I AVERAGE MISS LATENCY: 14.6224 cycles
L2C TOTAL     ACCESS:    8228350  HIT:    8228274  MISS:         76
L2C LOAD      ACCESS:     288900  HIT:     288894  MISS:          6
L2C RFO       ACCESS:      66751  HIT:      66751  MISS:          0
L2C PREFETCH  ACCESS:    7692623  HIT:    7692556  MISS:         67
L2C WRITEBACK ACCESS:     180076  HIT:     180073  MISS:          3
L2C PREFETCH  REQUESTED:    5480309  ISSUED:    5477562  USEFUL:          1  USELESS:          5
L2C AVERAGE MISS LATENCY: 51.8553 cycles
LLC TOTAL     ACCESS:     851816  HIT:     851407  MISS:        409
LLC LOAD      ACCESS:          6  HIT:          6  MISS:          0
LLC RFO       ACCESS:          0  HIT:          0  MISS:          0
LLC PREFETCH  ACCESS:     851805  HIT:     851396  MISS:        409
LLC WRITEBACK ACCESS:          5  HIT:          5  MISS:          0
LLC PREFETCH  REQUESTED:          0  ISSUED:          0  USEFUL:          3  USELESS:          0
LLC AVERAGE MISS LATENCY: 175.89 cycles
Major fault: 0 Minor fault: 357
CPU 0 L1D next line prefetcher final stats

DRAM Statistics
 CHANNEL 0
 RQ ROW_BUFFER_HIT:         47  ROW_BUFFER_MISS:        362
 DBUS_CONGESTED:         42
 WQ ROW_BUFFER_HIT:          0  ROW_BUFFER_MISS:          0  FULL:          0

 AVG_CONGESTED_CYCLE: 6

CPU 0 Branch Prediction Accuracy: 99.9091% MPKI: 0.1547 Average ROB Occupancy at Mispredict: 303.817

Branch types
NOT_BRANCH: 41494970 82.9899%
BRANCH_DIRECT_JUMP: 491308 0.982616%
BRANCH_INDIRECT: 0 0%
BRANCH_CONDITIONAL: 5595255 11.1905%
BRANCH_DIRECT_CALL: 1028408 2.05682%
BRANCH_INDIRECT_CALL: 180756 0.361512%
BRANCH_RETURN: 1209171 2.41834%
BRANCH_OTHER: 0 0%

