Initialize SIGNATURE TABLE
ST_SET: 1
ST_WAY: 256
ST_TAG_BIT: 16
ST_TAG_MASK: ffff

Initialize PATTERN TABLE
PT_SET: 512
PT_WAY: 4
SIG_DELTA_BIT: 7
C_SIG_BIT: 4
C_DELTA_BIT: 4

Initialize PREFETCH FILTER
FILTER_SET: 1024

*** ChampSim Multicore Out-of-Order Simulator ***

Warmup Instructions: 50000000
Simulation Instructions: 50000000
Number of CPUs: 1
LLC sets: 2048
LLC ways: 16
Off-chip DRAM Size: 4096 MB Channels: 1 Width: 64-bit Data Rate: 3200 MT/s

CPU 0 runs /home/tapatil/CSE240C/SA1/ChampSim-master/ipc1_public/server_020.champsimtrace.xz
CPU 0 EPI prefetcher
CPU 0 L1D next line prefetcher
Heartbeat CPU 0 instructions: 10000003 cycles: 3621179 heartbeat IPC: 2.76153 cumulative IPC: 2.76153 (Simulation time: 0 hr 0 min 41 sec) 
Heartbeat CPU 0 instructions: 20000002 cycles: 7246591 heartbeat IPC: 2.75831 cumulative IPC: 2.75992 (Simulation time: 0 hr 1 min 21 sec) 
Heartbeat CPU 0 instructions: 30000001 cycles: 10865292 heartbeat IPC: 2.76342 cumulative IPC: 2.76109 (Simulation time: 0 hr 2 min 2 sec) 
Heartbeat CPU 0 instructions: 40000002 cycles: 14485494 heartbeat IPC: 2.76228 cumulative IPC: 2.76138 (Simulation time: 0 hr 2 min 43 sec) 
Heartbeat CPU 0 instructions: 50000001 cycles: 18119314 heartbeat IPC: 2.75192 cumulative IPC: 2.75949 (Simulation time: 0 hr 3 min 25 sec) 

Warmup complete CPU 0 instructions: 50000001 cycles: 18119314 (Simulation time: 0 hr 3 min 25 sec) 

Heartbeat CPU 0 instructions: 60000003 cycles: 35883831 heartbeat IPC: 0.56292 cumulative IPC: 0.56292 (Simulation time: 0 hr 4 min 21 sec) 
Heartbeat CPU 0 instructions: 70000002 cycles: 53462077 heartbeat IPC: 0.568885 cumulative IPC: 0.565887 (Simulation time: 0 hr 5 min 17 sec) 
Heartbeat CPU 0 instructions: 80000002 cycles: 70899327 heartbeat IPC: 0.573485 cumulative IPC: 0.568397 (Simulation time: 0 hr 6 min 13 sec) 
Heartbeat CPU 0 instructions: 90000001 cycles: 88331842 heartbeat IPC: 0.573641 cumulative IPC: 0.569699 (Simulation time: 0 hr 7 min 10 sec) 
Heartbeat CPU 0 instructions: 100000002 cycles: 105870668 heartbeat IPC: 0.570164 cumulative IPC: 0.569792 (Simulation time: 0 hr 8 min 6 sec) 
Finished CPU 0 instructions: 50000001 cycles: 87751354 cumulative IPC: 0.569792 (Simulation time: 0 hr 8 min 6 sec) 

ChampSim completed all CPUs

Region of Interest Statistics

CPU 0 cumulative IPC: 0.569792 instructions: 50000001 cycles: 87751354
L1D TOTAL     ACCESS:   18634198  HIT:   16429979  MISS:    2204219
L1D LOAD      ACCESS:    7044282  HIT:    6323132  MISS:     721150
L1D RFO       ACCESS:    5813566  HIT:    4867615  MISS:     945951
L1D PREFETCH  ACCESS:    5776350  HIT:    5239232  MISS:     537118
L1D WRITEBACK ACCESS:          0  HIT:          0  MISS:          0
L1D PREFETCH  REQUESTED:    7085552  ISSUED:    6883533  USEFUL:     197835  USELESS:     339202
L1D AVERAGE MISS LATENCY: 175.158 cycles
L1I TOTAL     ACCESS:   34928565  HIT:   32375059  MISS:    2553506
L1I LOAD      ACCESS:   10121076  HIT:   10104101  MISS:      16975
L1I RFO       ACCESS:          0  HIT:          0  MISS:          0
L1I PREFETCH  ACCESS:   24807489  HIT:   22270958  MISS:    2536531
L1I WRITEBACK ACCESS:          0  HIT:          0  MISS:          0
L1I PREFETCH  REQUESTED:   30417405  ISSUED:   30417405  USEFUL:    2311608  USELESS:     224902
L1I AVERAGE MISS LATENCY: 19.5047 cycles
L2C TOTAL     ACCESS:    7030997  HIT:    5173185  MISS:    1857812
L2C LOAD      ACCESS:     506350  HIT:     242358  MISS:     263992
L2C RFO       ACCESS:     945457  HIT:      20175  MISS:     925282
L2C PREFETCH  ACCESS:    4415646  HIT:    3749770  MISS:     665876
L2C WRITEBACK ACCESS:    1163544  HIT:    1160882  MISS:       2662
L2C PREFETCH  REQUESTED:    4122656  ISSUED:    4118332  USEFUL:      22909  USELESS:     641839
L2C AVERAGE MISS LATENCY: 214.245 cycles
LLC TOTAL     ACCESS:    4051656  HIT:    2595096  MISS:    1456560
LLC LOAD      ACCESS:     263766  HIT:     163064  MISS:     100702
LLC RFO       ACCESS:     925246  HIT:     136683  MISS:     788563
LLC PREFETCH  ACCESS:    1764961  HIT:    1199677  MISS:     565284
LLC WRITEBACK ACCESS:    1097683  HIT:    1095672  MISS:       2011
LLC PREFETCH  REQUESTED:          0  ISSUED:          0  USEFUL:      31959  USELESS:     533330
LLC AVERAGE MISS LATENCY: 279.074 cycles
Major fault: 0 Minor fault: 22096
CPU 0 L1I EPI prefetcher final stats
CPU 0 L1D next line prefetcher final stats

DRAM Statistics
 CHANNEL 0
 RQ ROW_BUFFER_HIT:     407143  ROW_BUFFER_MISS:    1047139
 DBUS_CONGESTED:    1446514
 WQ ROW_BUFFER_HIT:     259662  ROW_BUFFER_MISS:     632025  FULL:          0

 AVG_CONGESTED_CYCLE: 6

CPU 0 Branch Prediction Accuracy: 99.712% MPKI: 0.47638 Average ROB Occupancy at Mispredict: 215.459

Branch types
NOT_BRANCH: 41729595 83.4592%
BRANCH_DIRECT_JUMP: 458221 0.916442%
BRANCH_INDIRECT: 49088 0.098176%
BRANCH_CONDITIONAL: 5938538 11.8771%
BRANCH_DIRECT_CALL: 745133 1.49027%
BRANCH_INDIRECT_CALL: 167110 0.33422%
BRANCH_RETURN: 912224 1.82445%
BRANCH_OTHER: 0 0%

