Initialize SIGNATURE TABLE
ST_SET: 1
ST_WAY: 256
ST_TAG_BIT: 16
ST_TAG_MASK: ffff

Initialize PATTERN TABLE
PT_SET: 512
PT_WAY: 4
SIG_DELTA_BIT: 7
C_SIG_BIT: 4
C_DELTA_BIT: 4

Initialize PREFETCH FILTER
FILTER_SET: 1024

*** ChampSim Multicore Out-of-Order Simulator ***

Warmup Instructions: 50000000
Simulation Instructions: 50000000
Number of CPUs: 1
LLC sets: 2048
LLC ways: 16
Off-chip DRAM Size: 4096 MB Channels: 1 Width: 64-bit Data Rate: 3200 MT/s

CPU 0 runs /home/tapatil/CSE240C/SA1/ChampSim-master/ipc1_public/server_032.champsimtrace.xz
L1I D-JOLT instruction prefetcher has been constructed!
CPU 0 L1D next line prefetcher
Heartbeat CPU 0 instructions: 10000002 cycles: 3521667 heartbeat IPC: 2.83956 cumulative IPC: 2.83956 (Simulation time: 0 hr 0 min 35 sec) 
Heartbeat CPU 0 instructions: 20000003 cycles: 7043952 heartbeat IPC: 2.83907 cumulative IPC: 2.83932 (Simulation time: 0 hr 1 min 11 sec) 
Heartbeat CPU 0 instructions: 30000000 cycles: 10565618 heartbeat IPC: 2.83956 cumulative IPC: 2.8394 (Simulation time: 0 hr 1 min 46 sec) 
Heartbeat CPU 0 instructions: 40000003 cycles: 14088921 heartbeat IPC: 2.83825 cumulative IPC: 2.83911 (Simulation time: 0 hr 2 min 22 sec) 
Heartbeat CPU 0 instructions: 50000000 cycles: 17611797 heartbeat IPC: 2.83859 cumulative IPC: 2.83901 (Simulation time: 0 hr 2 min 57 sec) 

Warmup complete CPU 0 instructions: 50000004 cycles: 17611798 (Simulation time: 0 hr 2 min 57 sec) 

Heartbeat CPU 0 instructions: 60000002 cycles: 24299098 heartbeat IPC: 1.49537 cumulative IPC: 1.49537 (Simulation time: 0 hr 3 min 34 sec) 
Heartbeat CPU 0 instructions: 70000000 cycles: 30985125 heartbeat IPC: 1.49566 cumulative IPC: 1.49551 (Simulation time: 0 hr 4 min 12 sec) 
*** Reached end of trace for Core: 0 Repeating trace: /home/tapatil/CSE240C/SA1/ChampSim-master/ipc1_public/server_032.champsimtrace.xz
Heartbeat CPU 0 instructions: 80000003 cycles: 37671234 heartbeat IPC: 1.49564 cumulative IPC: 1.49556 (Simulation time: 0 hr 4 min 50 sec) 
Heartbeat CPU 0 instructions: 90000002 cycles: 44331657 heartbeat IPC: 1.50141 cumulative IPC: 1.49701 (Simulation time: 0 hr 5 min 28 sec) 
Heartbeat CPU 0 instructions: 100000001 cycles: 51001671 heartbeat IPC: 1.49925 cumulative IPC: 1.49746 (Simulation time: 0 hr 6 min 5 sec) 
Finished CPU 0 instructions: 50000002 cycles: 33389875 cumulative IPC: 1.49746 (Simulation time: 0 hr 6 min 5 sec) 

ChampSim completed all CPUs

Region of Interest Statistics

CPU 0 cumulative IPC: 1.49746 instructions: 50000002 cycles: 33389875
L1D TOTAL     ACCESS:   19809093  HIT:   17981019  MISS:    1828074
L1D LOAD      ACCESS:    6763818  HIT:    5967899  MISS:     795919
L1D RFO       ACCESS:    6561586  HIT:    6267996  MISS:     293590
L1D PREFETCH  ACCESS:    6483689  HIT:    5745124  MISS:     738565
L1D WRITEBACK ACCESS:          0  HIT:          0  MISS:          0
L1D PREFETCH  REQUESTED:    6812454  ISSUED:    6673414  USEFUL:     168511  USELESS:     570053
L1D AVERAGE MISS LATENCY: 18.5152 cycles
L1I TOTAL     ACCESS:   17178839  HIT:   13797529  MISS:    3381310
L1I LOAD      ACCESS:    9705940  HIT:    9653331  MISS:      52609
L1I RFO       ACCESS:          0  HIT:          0  MISS:          0
L1I PREFETCH  ACCESS:    7472899  HIT:    4144198  MISS:    3328701
L1I WRITEBACK ACCESS:          0  HIT:          0  MISS:          0
L1I PREFETCH  REQUESTED:    7783441  ISSUED:    7771169  USEFUL:    3135907  USELESS:     192798
L1I AVERAGE MISS LATENCY: 17.2033 cycles
L2C TOTAL     ACCESS:    7610749  HIT:    7122239  MISS:     488510
L2C LOAD      ACCESS:     820509  HIT:     730698  MISS:      89811
L2C RFO       ACCESS:     292320  HIT:     251752  MISS:      40568
L2C PREFETCH  ACCESS:    5861554  HIT:    5505276  MISS:     356278
L2C WRITEBACK ACCESS:     636366  HIT:     634513  MISS:       1853
L2C PREFETCH  REQUESTED:    5620472  ISSUED:    5600219  USEFUL:       3572  USELESS:     352626
L2C AVERAGE MISS LATENCY: 32.7487 cycles
LLC TOTAL     ACCESS:    2294154  HIT:    2287469  MISS:       6685
LLC LOAD      ACCESS:      89632  HIT:      89146  MISS:        486
LLC RFO       ACCESS:      40564  HIT:      40564  MISS:          0
LLC PREFETCH  ACCESS:    2085364  HIT:    2079201  MISS:       6163
LLC WRITEBACK ACCESS:      78594  HIT:      78558  MISS:         36
LLC PREFETCH  REQUESTED:          0  ISSUED:          0  USEFUL:        425  USELESS:       2645
LLC AVERAGE MISS LATENCY: 149.361 cycles
Major fault: 0 Minor fault: 1183
CPU 0 L1D next line prefetcher final stats

DRAM Statistics
 CHANNEL 0
 RQ ROW_BUFFER_HIT:       1707  ROW_BUFFER_MISS:       4942
 DBUS_CONGESTED:        840
 WQ ROW_BUFFER_HIT:          1  ROW_BUFFER_MISS:         30  FULL:          0

 AVG_CONGESTED_CYCLE: 5

CPU 0 Branch Prediction Accuracy: 99.8762% MPKI: 0.2296 Average ROB Occupancy at Mispredict: 183.825

Branch types
NOT_BRANCH: 40726171 81.4523%
BRANCH_DIRECT_JUMP: 508374 1.01675%
BRANCH_INDIRECT: 180051 0.360102%
BRANCH_CONDITIONAL: 5999665 11.9993%
BRANCH_DIRECT_CALL: 1086739 2.17348%
BRANCH_INDIRECT_CALL: 206109 0.412218%
BRANCH_RETURN: 1292837 2.58567%
BRANCH_OTHER: 0 0%

