Initialize SIGNATURE TABLE
ST_SET: 1
ST_WAY: 256
ST_TAG_BIT: 16
ST_TAG_MASK: ffff

Initialize PATTERN TABLE
PT_SET: 512
PT_WAY: 4
SIG_DELTA_BIT: 7
C_SIG_BIT: 4
C_DELTA_BIT: 4

Initialize PREFETCH FILTER
FILTER_SET: 1024

*** ChampSim Multicore Out-of-Order Simulator ***

Warmup Instructions: 50000000
Simulation Instructions: 50000000
Number of CPUs: 1
LLC sets: 2048
LLC ways: 16
Off-chip DRAM Size: 4096 MB Channels: 1 Width: 64-bit Data Rate: 3200 MT/s

CPU 0 runs /home/tapatil/CSE240C/SA1/ChampSim-master/ipc1_public/server_012.champsimtrace.xz
CPU 0 EPI prefetcher
CPU 0 L1D next line prefetcher
Heartbeat CPU 0 instructions: 10000002 cycles: 3196848 heartbeat IPC: 3.12808 cumulative IPC: 3.12808 (Simulation time: 0 hr 0 min 38 sec) 
Heartbeat CPU 0 instructions: 20000002 cycles: 6396703 heartbeat IPC: 3.12514 cumulative IPC: 3.12661 (Simulation time: 0 hr 1 min 17 sec) 
Heartbeat CPU 0 instructions: 30000001 cycles: 9597489 heartbeat IPC: 3.12423 cumulative IPC: 3.12582 (Simulation time: 0 hr 1 min 55 sec) 
Heartbeat CPU 0 instructions: 40000000 cycles: 12804028 heartbeat IPC: 3.11863 cumulative IPC: 3.12402 (Simulation time: 0 hr 2 min 34 sec) 
Heartbeat CPU 0 instructions: 50000003 cycles: 16003228 heartbeat IPC: 3.12578 cumulative IPC: 3.12437 (Simulation time: 0 hr 3 min 12 sec) 

Warmup complete CPU 0 instructions: 50000003 cycles: 16003228 (Simulation time: 0 hr 3 min 12 sec) 

Heartbeat CPU 0 instructions: 60000002 cycles: 23038738 heartbeat IPC: 1.42136 cumulative IPC: 1.42136 (Simulation time: 0 hr 3 min 49 sec) 
Heartbeat CPU 0 instructions: 70000000 cycles: 30084465 heartbeat IPC: 1.4193 cumulative IPC: 1.42033 (Simulation time: 0 hr 4 min 28 sec) 
Heartbeat CPU 0 instructions: 80000003 cycles: 37127751 heartbeat IPC: 1.41979 cumulative IPC: 1.42015 (Simulation time: 0 hr 5 min 6 sec) 
Heartbeat CPU 0 instructions: 90000001 cycles: 44425306 heartbeat IPC: 1.37032 cumulative IPC: 1.40736 (Simulation time: 0 hr 5 min 44 sec) 
Heartbeat CPU 0 instructions: 100000002 cycles: 51594457 heartbeat IPC: 1.39487 cumulative IPC: 1.40484 (Simulation time: 0 hr 6 min 21 sec) 
Finished CPU 0 instructions: 50000001 cycles: 35591230 cumulative IPC: 1.40484 (Simulation time: 0 hr 6 min 21 sec) 

ChampSim completed all CPUs

Region of Interest Statistics

CPU 0 cumulative IPC: 1.40484 instructions: 50000001 cycles: 35591230
L1D TOTAL     ACCESS:   17273623  HIT:   16230857  MISS:    1042766
L1D LOAD      ACCESS:    6278208  HIT:    5789961  MISS:     488247
L1D RFO       ACCESS:    4959634  HIT:    4877883  MISS:      81751
L1D PREFETCH  ACCESS:    6035781  HIT:    5563013  MISS:     472768
L1D WRITEBACK ACCESS:          0  HIT:          0  MISS:          0
L1D PREFETCH  REQUESTED:    6311983  ISSUED:    6212980  USEFUL:     132217  USELESS:     340571
L1D AVERAGE MISS LATENCY: 40.5843 cycles
L1I TOTAL     ACCESS:   34615375  HIT:   32610372  MISS:    2005003
L1I LOAD      ACCESS:    8750363  HIT:    8700356  MISS:      50007
L1I RFO       ACCESS:          0  HIT:          0  MISS:          0
L1I PREFETCH  ACCESS:   25865012  HIT:   23910016  MISS:    1954996
L1I WRITEBACK ACCESS:          0  HIT:          0  MISS:          0
L1I PREFETCH  REQUESTED:   34967864  ISSUED:   34967864  USEFUL:    1368248  USELESS:     586721
L1I AVERAGE MISS LATENCY: 31.5937 cycles
L2C TOTAL     ACCESS:    3914726  HIT:    2621073  MISS:    1293653
L2C LOAD      ACCESS:     489463  HIT:     238742  MISS:     250721
L2C RFO       ACCESS:      80596  HIT:      30877  MISS:      49719
L2C PREFETCH  ACCESS:    3069171  HIT:    2077734  MISS:     991437
L2C WRITEBACK ACCESS:     275496  HIT:     273720  MISS:       1776
L2C PREFETCH  REQUESTED:    3669446  ISSUED:    3663198  USEFUL:      26049  USELESS:     964955
L2C AVERAGE MISS LATENCY: 46.7763 cycles
LLC TOTAL     ACCESS:    2400654  HIT:    2253482  MISS:     147172
LLC LOAD      ACCESS:     250611  HIT:     232043  MISS:      18568
LLC RFO       ACCESS:      49716  HIT:      39382  MISS:      10334
LLC PREFETCH  ACCESS:    1932688  HIT:    1814706  MISS:     117982
LLC WRITEBACK ACCESS:     167639  HIT:     167351  MISS:        288
LLC PREFETCH  REQUESTED:          0  ISSUED:          0  USEFUL:       9954  USELESS:     107775
LLC AVERAGE MISS LATENCY: 176.411 cycles
Major fault: 0 Minor fault: 5610
CPU 0 L1I EPI prefetcher final stats
CPU 0 L1D next line prefetcher final stats

DRAM Statistics
 CHANNEL 0
 RQ ROW_BUFFER_HIT:      22523  ROW_BUFFER_MISS:     124339
 DBUS_CONGESTED:      67932
 WQ ROW_BUFFER_HIT:      11038  ROW_BUFFER_MISS:      48739  FULL:          0

 AVG_CONGESTED_CYCLE: 5

CPU 0 Branch Prediction Accuracy: 99.4607% MPKI: 1.00288 Average ROB Occupancy at Mispredict: 127.51

Branch types
NOT_BRANCH: 40701161 81.4023%
BRANCH_DIRECT_JUMP: 469810 0.93962%
BRANCH_INDIRECT: 153732 0.307464%
BRANCH_CONDITIONAL: 6944091 13.8882%
BRANCH_DIRECT_CALL: 679880 1.35976%
BRANCH_INDIRECT_CALL: 168745 0.33749%
BRANCH_RETURN: 882493 1.76499%
BRANCH_OTHER: 0 0%

