Initialize SIGNATURE TABLE
ST_SET: 1
ST_WAY: 256
ST_TAG_BIT: 16
ST_TAG_MASK: ffff

Initialize PATTERN TABLE
PT_SET: 512
PT_WAY: 4
SIG_DELTA_BIT: 7
C_SIG_BIT: 4
C_DELTA_BIT: 4

Initialize PREFETCH FILTER
FILTER_SET: 1024

*** ChampSim Multicore Out-of-Order Simulator ***

Warmup Instructions: 50000000
Simulation Instructions: 50000000
Number of CPUs: 1
LLC sets: 2048
LLC ways: 16
Off-chip DRAM Size: 4096 MB Channels: 1 Width: 64-bit Data Rate: 3200 MT/s

CPU 0 runs /home/tapatil/CSE240C/SA1/ChampSim-master/ipc1_public/server_009.champsimtrace.xz
L1I D-JOLT instruction prefetcher has been constructed!
CPU 0 L1D next line prefetcher
Heartbeat CPU 0 instructions: 10000003 cycles: 3196437 heartbeat IPC: 3.12848 cumulative IPC: 3.12848 (Simulation time: 0 hr 0 min 31 sec) 
Heartbeat CPU 0 instructions: 20000001 cycles: 6385978 heartbeat IPC: 3.13525 cumulative IPC: 3.13186 (Simulation time: 0 hr 1 min 1 sec) 
Heartbeat CPU 0 instructions: 30000002 cycles: 9590704 heartbeat IPC: 3.12039 cumulative IPC: 3.12803 (Simulation time: 0 hr 1 min 33 sec) 
Heartbeat CPU 0 instructions: 40000003 cycles: 12791602 heartbeat IPC: 3.12412 cumulative IPC: 3.12705 (Simulation time: 0 hr 2 min 3 sec) 
Heartbeat CPU 0 instructions: 50000000 cycles: 16049411 heartbeat IPC: 3.06955 cumulative IPC: 3.11538 (Simulation time: 0 hr 2 min 34 sec) 

Warmup complete CPU 0 instructions: 50000004 cycles: 16049412 (Simulation time: 0 hr 2 min 34 sec) 

Heartbeat CPU 0 instructions: 60000002 cycles: 31711052 heartbeat IPC: 0.638503 cumulative IPC: 0.638503 (Simulation time: 0 hr 3 min 15 sec) 
Heartbeat CPU 0 instructions: 70000003 cycles: 52769583 heartbeat IPC: 0.474867 cumulative IPC: 0.54466 (Simulation time: 0 hr 4 min 6 sec) 
Heartbeat CPU 0 instructions: 80000000 cycles: 59878413 heartbeat IPC: 1.4067 cumulative IPC: 0.684478 (Simulation time: 0 hr 4 min 37 sec) 
Heartbeat CPU 0 instructions: 90000001 cycles: 67131115 heartbeat IPC: 1.3788 cumulative IPC: 0.783059 (Simulation time: 0 hr 5 min 8 sec) 
Heartbeat CPU 0 instructions: 100000003 cycles: 74270448 heartbeat IPC: 1.40069 cumulative IPC: 0.858796 (Simulation time: 0 hr 5 min 38 sec) 
Finished CPU 0 instructions: 50000003 cycles: 58221037 cumulative IPC: 0.858796 (Simulation time: 0 hr 5 min 38 sec) 

ChampSim completed all CPUs

Region of Interest Statistics

CPU 0 cumulative IPC: 0.858796 instructions: 50000003 cycles: 58221037
L1D TOTAL     ACCESS:   21605393  HIT:   17025924  MISS:    4579469
L1D LOAD      ACCESS:    8618969  HIT:    6338541  MISS:    2280428
L1D RFO       ACCESS:    4580661  HIT:    4476217  MISS:     104444
L1D PREFETCH  ACCESS:    8405763  HIT:    6211166  MISS:    2194597
L1D WRITEBACK ACCESS:          0  HIT:          0  MISS:          0
L1D PREFETCH  REQUESTED:    8651430  ISSUED:    8554413  USEFUL:     106140  USELESS:    2088456
L1D AVERAGE MISS LATENCY: 20.3591 cycles
L1I TOTAL     ACCESS:   17392472  HIT:   15833193  MISS:    1559279
L1I LOAD      ACCESS:   10780584  HIT:   10715247  MISS:      65337
L1I RFO       ACCESS:          0  HIT:          0  MISS:          0
L1I PREFETCH  ACCESS:    6611888  HIT:    5117946  MISS:    1493942
L1I WRITEBACK ACCESS:          0  HIT:          0  MISS:          0
L1I PREFETCH  REQUESTED:    7317264  ISSUED:    6885880  USEFUL:    1089768  USELESS:     404150
L1I AVERAGE MISS LATENCY: 31.0929 cycles
L2C TOTAL     ACCESS:    7926276  HIT:    6873991  MISS:    1052285
L2C LOAD      ACCESS:    2297973  HIT:    2077046  MISS:     220927
L2C RFO       ACCESS:     103496  HIT:      63272  MISS:      40224
L2C PREFETCH  ACCESS:    5267951  HIT:    4477902  MISS:     790049
L2C WRITEBACK ACCESS:     256856  HIT:     255771  MISS:       1085
L2C PREFETCH  REQUESTED:    6607543  ISSUED:    6604528  USEFUL:      22402  USELESS:     766474
L2C AVERAGE MISS LATENCY: 46.7366 cycles
LLC TOTAL     ACCESS:    2331633  HIT:    2200569  MISS:     131064
LLC LOAD      ACCESS:     220691  HIT:     200856  MISS:      19835
LLC RFO       ACCESS:      40213  HIT:      31730  MISS:       8483
LLC PREFETCH  ACCESS:    1933402  HIT:    1830862  MISS:     102540
LLC WRITEBACK ACCESS:     137327  HIT:     137121  MISS:        206
LLC PREFETCH  REQUESTED:          0  ISSUED:          0  USEFUL:      11255  USELESS:      89833
LLC AVERAGE MISS LATENCY: 173.664 cycles
Major fault: 0 Minor fault: 6364
CPU 0 L1D next line prefetcher final stats

DRAM Statistics
 CHANNEL 0
 RQ ROW_BUFFER_HIT:      25066  ROW_BUFFER_MISS:     105782
 DBUS_CONGESTED:      56057
 WQ ROW_BUFFER_HIT:       8780  ROW_BUFFER_MISS:      37115  FULL:          0

 AVG_CONGESTED_CYCLE: 5

CPU 0 Branch Prediction Accuracy: 99.4713% MPKI: 1.11484 Average ROB Occupancy at Mispredict: 119.786

Branch types
NOT_BRANCH: 39456615 78.9132%
BRANCH_DIRECT_JUMP: 445350 0.8907%
BRANCH_INDIRECT: 131149 0.262298%
BRANCH_CONDITIONAL: 8130196 16.2604%
BRANCH_DIRECT_CALL: 732485 1.46497%
BRANCH_INDIRECT_CALL: 172369 0.344738%
BRANCH_RETURN: 931558 1.86312%
BRANCH_OTHER: 0 0%

