Initialize SIGNATURE TABLE
ST_SET: 1
ST_WAY: 256
ST_TAG_BIT: 16
ST_TAG_MASK: ffff

Initialize PATTERN TABLE
PT_SET: 512
PT_WAY: 4
SIG_DELTA_BIT: 7
C_SIG_BIT: 4
C_DELTA_BIT: 4

Initialize PREFETCH FILTER
FILTER_SET: 1024

*** ChampSim Multicore Out-of-Order Simulator ***

Warmup Instructions: 50000000
Simulation Instructions: 50000000
Number of CPUs: 1
LLC sets: 2048
LLC ways: 16
Off-chip DRAM Size: 4096 MB Channels: 1 Width: 64-bit Data Rate: 3200 MT/s

CPU 0 runs /home/tapatil/CSE240C/SA1/ChampSim-master/ipc1_public/server_037.champsimtrace.xz
L1I D-JOLT instruction prefetcher has been constructed!
CPU 0 L1D next line prefetcher
Heartbeat CPU 0 instructions: 10000001 cycles: 3319099 heartbeat IPC: 3.01287 cumulative IPC: 3.01287 (Simulation time: 0 hr 0 min 34 sec) 
Heartbeat CPU 0 instructions: 20000002 cycles: 6635677 heartbeat IPC: 3.01516 cumulative IPC: 3.01401 (Simulation time: 0 hr 1 min 8 sec) 
Heartbeat CPU 0 instructions: 30000003 cycles: 10000244 heartbeat IPC: 2.97215 cumulative IPC: 2.99993 (Simulation time: 0 hr 1 min 42 sec) 
Heartbeat CPU 0 instructions: 40000000 cycles: 13318676 heartbeat IPC: 3.01347 cumulative IPC: 3.0033 (Simulation time: 0 hr 2 min 17 sec) 
Heartbeat CPU 0 instructions: 50000003 cycles: 16637598 heartbeat IPC: 3.01303 cumulative IPC: 3.00524 (Simulation time: 0 hr 2 min 52 sec) 

Warmup complete CPU 0 instructions: 50000003 cycles: 16637598 (Simulation time: 0 hr 2 min 52 sec) 

Heartbeat CPU 0 instructions: 60000001 cycles: 23038963 heartbeat IPC: 1.56217 cumulative IPC: 1.56217 (Simulation time: 0 hr 3 min 30 sec) 
Heartbeat CPU 0 instructions: 70000000 cycles: 29528151 heartbeat IPC: 1.54102 cumulative IPC: 1.55152 (Simulation time: 0 hr 4 min 8 sec) 
Heartbeat CPU 0 instructions: 80000000 cycles: 35922646 heartbeat IPC: 1.56385 cumulative IPC: 1.55561 (Simulation time: 0 hr 4 min 45 sec) 
Heartbeat CPU 0 instructions: 90000002 cycles: 42343678 heartbeat IPC: 1.55738 cumulative IPC: 1.55605 (Simulation time: 0 hr 5 min 23 sec) 
*** Reached end of trace for Core: 0 Repeating trace: /home/tapatil/CSE240C/SA1/ChampSim-master/ipc1_public/server_037.champsimtrace.xz
Heartbeat CPU 0 instructions: 100000000 cycles: 48743695 heartbeat IPC: 1.5625 cumulative IPC: 1.55734 (Simulation time: 0 hr 6 min 1 sec) 
Finished CPU 0 instructions: 50000001 cycles: 32106098 cumulative IPC: 1.55734 (Simulation time: 0 hr 6 min 1 sec) 

ChampSim completed all CPUs

Region of Interest Statistics

CPU 0 cumulative IPC: 1.55734 instructions: 50000001 cycles: 32106098
L1D TOTAL     ACCESS:   18685553  HIT:   17707667  MISS:     977886
L1D LOAD      ACCESS:    6358766  HIT:    5867567  MISS:     491199
L1D RFO       ACCESS:    6205068  HIT:    6141036  MISS:      64032
L1D PREFETCH  ACCESS:    6121719  HIT:    5699064  MISS:     422655
L1D WRITEBACK ACCESS:          0  HIT:          0  MISS:          0
L1D PREFETCH  REQUESTED:    6396345  ISSUED:    6243318  USEFUL:     117575  USELESS:     305084
L1D AVERAGE MISS LATENCY: 29.3457 cycles
L1I TOTAL     ACCESS:   20199162  HIT:   15191844  MISS:    5007318
L1I LOAD      ACCESS:    9446751  HIT:    9395569  MISS:      51182
L1I RFO       ACCESS:          0  HIT:          0  MISS:          0
L1I PREFETCH  ACCESS:   10752411  HIT:    5796275  MISS:    4956136
L1I WRITEBACK ACCESS:          0  HIT:          0  MISS:          0
L1I PREFETCH  REQUESTED:   11212195  ISSUED:   11184306  USEFUL:    4085728  USELESS:     870425
L1I AVERAGE MISS LATENCY: 14.7875 cycles
L2C TOTAL     ACCESS:    8787244  HIT:    8467692  MISS:     319552
L2C LOAD      ACCESS:     536387  HIT:     393762  MISS:     142625
L2C RFO       ACCESS:      63785  HIT:      35831  MISS:      27954
L2C PREFETCH  ACCESS:    7897504  HIT:    7749859  MISS:     147645
L2C WRITEBACK ACCESS:     289568  HIT:     288240  MISS:       1328
L2C PREFETCH  REQUESTED:    6661838  ISSUED:    6637715  USEFUL:       6873  USELESS:     140643
L2C AVERAGE MISS LATENCY: 45.0326 cycles
LLC TOTAL     ACCESS:    2123476  HIT:    2062693  MISS:      60783
LLC LOAD      ACCESS:     142611  HIT:     129813  MISS:      12798
LLC RFO       ACCESS:      27954  HIT:      23290  MISS:       4664
LLC PREFETCH  ACCESS:    1808299  HIT:    1765618  MISS:      42681
LLC WRITEBACK ACCESS:     144612  HIT:     143972  MISS:        640
LLC PREFETCH  REQUESTED:          0  ISSUED:          0  USEFUL:       4318  USELESS:      38004
LLC AVERAGE MISS LATENCY: 169.915 cycles
Major fault: 0 Minor fault: 5654
CPU 0 L1D next line prefetcher final stats

DRAM Statistics
 CHANNEL 0
 RQ ROW_BUFFER_HIT:      13469  ROW_BUFFER_MISS:      46673
 DBUS_CONGESTED:      24187
 WQ ROW_BUFFER_HIT:       1612  ROW_BUFFER_MISS:      10700  FULL:          0

 AVG_CONGESTED_CYCLE: 5

CPU 0 Branch Prediction Accuracy: 99.913% MPKI: 0.15656 Average ROB Occupancy at Mispredict: 228.915

Branch types
NOT_BRANCH: 41001725 82.0034%
BRANCH_DIRECT_JUMP: 541941 1.08388%
BRANCH_INDIRECT: 59716 0.119432%
BRANCH_CONDITIONAL: 5916854 11.8337%
BRANCH_DIRECT_CALL: 1005465 2.01093%
BRANCH_INDIRECT_CALL: 234433 0.468866%
BRANCH_RETURN: 1239877 2.47975%
BRANCH_OTHER: 0 0%

