Initialize SIGNATURE TABLE
ST_SET: 1
ST_WAY: 256
ST_TAG_BIT: 16
ST_TAG_MASK: ffff

Initialize PATTERN TABLE
PT_SET: 512
PT_WAY: 4
SIG_DELTA_BIT: 7
C_SIG_BIT: 4
C_DELTA_BIT: 4

Initialize PREFETCH FILTER
FILTER_SET: 1024

*** ChampSim Multicore Out-of-Order Simulator ***

Warmup Instructions: 50000000
Simulation Instructions: 50000000
Number of CPUs: 1
LLC sets: 2048
LLC ways: 16
Off-chip DRAM Size: 4096 MB Channels: 1 Width: 64-bit Data Rate: 3200 MT/s

CPU 0 runs /home/tapatil/CSE240C/SA1/ChampSim-master/ipc1_public/server_011.champsimtrace.xz
CPU 0 EPI prefetcher
CPU 0 L1D next line prefetcher
Heartbeat CPU 0 instructions: 10000002 cycles: 3206144 heartbeat IPC: 3.11901 cumulative IPC: 3.11901 (Simulation time: 0 hr 0 min 37 sec) 
Heartbeat CPU 0 instructions: 20000001 cycles: 6417840 heartbeat IPC: 3.11362 cumulative IPC: 3.11631 (Simulation time: 0 hr 1 min 14 sec) 
Heartbeat CPU 0 instructions: 30000001 cycles: 9673300 heartbeat IPC: 3.07176 cumulative IPC: 3.10132 (Simulation time: 0 hr 1 min 52 sec) 
Heartbeat CPU 0 instructions: 40000003 cycles: 12876744 heartbeat IPC: 3.12164 cumulative IPC: 3.10638 (Simulation time: 0 hr 2 min 29 sec) 
Heartbeat CPU 0 instructions: 50000000 cycles: 16086903 heartbeat IPC: 3.11511 cumulative IPC: 3.10812 (Simulation time: 0 hr 3 min 7 sec) 

Warmup complete CPU 0 instructions: 50000004 cycles: 16086904 (Simulation time: 0 hr 3 min 7 sec) 

Heartbeat CPU 0 instructions: 60000002 cycles: 23532008 heartbeat IPC: 1.34316 cumulative IPC: 1.34316 (Simulation time: 0 hr 3 min 44 sec) 
Heartbeat CPU 0 instructions: 70000001 cycles: 31344978 heartbeat IPC: 1.27992 cumulative IPC: 1.31078 (Simulation time: 0 hr 4 min 21 sec) 
Heartbeat CPU 0 instructions: 80000003 cycles: 40087644 heartbeat IPC: 1.14382 cumulative IPC: 1.24996 (Simulation time: 0 hr 4 min 54 sec) 
Heartbeat CPU 0 instructions: 90000001 cycles: 47682627 heartbeat IPC: 1.31666 cumulative IPC: 1.26599 (Simulation time: 0 hr 5 min 30 sec) 
Heartbeat CPU 0 instructions: 100000000 cycles: 55087917 heartbeat IPC: 1.35039 cumulative IPC: 1.28202 (Simulation time: 0 hr 6 min 6 sec) 
Finished CPU 0 instructions: 50000003 cycles: 39001025 cumulative IPC: 1.28202 (Simulation time: 0 hr 6 min 6 sec) 

ChampSim completed all CPUs

Region of Interest Statistics

CPU 0 cumulative IPC: 1.28202 instructions: 50000003 cycles: 39001025
L1D TOTAL     ACCESS:   18175421  HIT:   17144293  MISS:    1031128
L1D LOAD      ACCESS:    6789728  HIT:    6309489  MISS:     480239
L1D RFO       ACCESS:    4832229  HIT:    4750225  MISS:      82004
L1D PREFETCH  ACCESS:    6553464  HIT:    6084579  MISS:     468885
L1D WRITEBACK ACCESS:          0  HIT:          0  MISS:          0
L1D PREFETCH  REQUESTED:    6826338  ISSUED:    6733589  USEFUL:     138669  USELESS:     330212
L1D AVERAGE MISS LATENCY: 40.7273 cycles
L1I TOTAL     ACCESS:   31973592  HIT:   30236773  MISS:    1736819
L1I LOAD      ACCESS:    8872315  HIT:    8778169  MISS:      94146
L1I RFO       ACCESS:          0  HIT:          0  MISS:          0
L1I PREFETCH  ACCESS:   23101277  HIT:   21458604  MISS:    1642673
L1I WRITEBACK ACCESS:          0  HIT:          0  MISS:          0
L1I PREFETCH  REQUESTED:   29558589  ISSUED:   29558589  USEFUL:    1187800  USELESS:     454809
L1I AVERAGE MISS LATENCY: 32.8578 cycles
L2C TOTAL     ACCESS:    3655795  HIT:    2530744  MISS:    1125051
L2C LOAD      ACCESS:     522036  HIT:     280331  MISS:     241705
L2C RFO       ACCESS:      80170  HIT:      34381  MISS:      45789
L2C PREFETCH  ACCESS:    2785490  HIT:    1949146  MISS:     836344
L2C WRITEBACK ACCESS:     268099  HIT:     266886  MISS:       1213
L2C PREFETCH  REQUESTED:    3782135  ISSUED:    3771049  USEFUL:      32819  USELESS:     803214
L2C AVERAGE MISS LATENCY: 52.0103 cycles
LLC TOTAL     ACCESS:    2278015  HIT:    2085154  MISS:     192861
LLC LOAD      ACCESS:     236719  HIT:     209182  MISS:      27537
LLC RFO       ACCESS:      45785  HIT:      32185  MISS:      13600
LLC PREFETCH  ACCESS:    1844443  HIT:    1693228  MISS:     151215
LLC WRITEBACK ACCESS:     151068  HIT:     150559  MISS:        509
LLC PREFETCH  REQUESTED:          0  ISSUED:          0  USEFUL:      17734  USELESS:     132715
LLC AVERAGE MISS LATENCY: 178.431 cycles
Major fault: 0 Minor fault: 6979
CPU 0 L1I EPI prefetcher final stats
CPU 0 L1D next line prefetcher final stats

DRAM Statistics
 CHANNEL 0
 RQ ROW_BUFFER_HIT:      37414  ROW_BUFFER_MISS:     154913
 DBUS_CONGESTED:      89722
 WQ ROW_BUFFER_HIT:      12754  ROW_BUFFER_MISS:      49969  FULL:          0

 AVG_CONGESTED_CYCLE: 5

CPU 0 Branch Prediction Accuracy: 97.5565% MPKI: 4.59006 Average ROB Occupancy at Mispredict: 63.1627

Branch types
NOT_BRANCH: 40607199 81.2144%
BRANCH_DIRECT_JUMP: 451601 0.903202%
BRANCH_INDIRECT: 151580 0.30316%
BRANCH_CONDITIONAL: 7041635 14.0833%
BRANCH_DIRECT_CALL: 647827 1.29565%
BRANCH_INDIRECT_CALL: 211373 0.422746%
BRANCH_RETURN: 888439 1.77688%
BRANCH_OTHER: 0 0%

