Initialize SIGNATURE TABLE
ST_SET: 1
ST_WAY: 256
ST_TAG_BIT: 16
ST_TAG_MASK: ffff

Initialize PATTERN TABLE
PT_SET: 512
PT_WAY: 4
SIG_DELTA_BIT: 7
C_SIG_BIT: 4
C_DELTA_BIT: 4

Initialize PREFETCH FILTER
FILTER_SET: 1024

*** ChampSim Multicore Out-of-Order Simulator ***

Warmup Instructions: 50000000
Simulation Instructions: 50000000
Number of CPUs: 1
LLC sets: 2048
LLC ways: 16
Off-chip DRAM Size: 4096 MB Channels: 1 Width: 64-bit Data Rate: 3200 MT/s

CPU 0 runs /home/tapatil/CSE240C/SA1/ChampSim-master/ipc1_public/server_032.champsimtrace.xz
CPU 0 EPI prefetcher
CPU 0 L1D next line prefetcher
Heartbeat CPU 0 instructions: 10000002 cycles: 3521904 heartbeat IPC: 2.83937 cumulative IPC: 2.83937 (Simulation time: 0 hr 0 min 41 sec) 
Heartbeat CPU 0 instructions: 20000003 cycles: 7044697 heartbeat IPC: 2.83866 cumulative IPC: 2.83902 (Simulation time: 0 hr 1 min 20 sec) 
Heartbeat CPU 0 instructions: 30000000 cycles: 10567166 heartbeat IPC: 2.83892 cumulative IPC: 2.83898 (Simulation time: 0 hr 2 min 0 sec) 
Heartbeat CPU 0 instructions: 40000003 cycles: 14091314 heartbeat IPC: 2.83757 cumulative IPC: 2.83863 (Simulation time: 0 hr 2 min 40 sec) 
Heartbeat CPU 0 instructions: 50000000 cycles: 17615205 heartbeat IPC: 2.83777 cumulative IPC: 2.83846 (Simulation time: 0 hr 3 min 20 sec) 

Warmup complete CPU 0 instructions: 50000004 cycles: 17615206 (Simulation time: 0 hr 3 min 20 sec) 

Heartbeat CPU 0 instructions: 60000002 cycles: 24359168 heartbeat IPC: 1.48281 cumulative IPC: 1.48281 (Simulation time: 0 hr 4 min 1 sec) 
Heartbeat CPU 0 instructions: 70000000 cycles: 31109205 heartbeat IPC: 1.48147 cumulative IPC: 1.48214 (Simulation time: 0 hr 4 min 43 sec) 
*** Reached end of trace for Core: 0 Repeating trace: /home/tapatil/CSE240C/SA1/ChampSim-master/ipc1_public/server_032.champsimtrace.xz
Heartbeat CPU 0 instructions: 80000003 cycles: 37851776 heartbeat IPC: 1.48311 cumulative IPC: 1.48246 (Simulation time: 0 hr 5 min 24 sec) 
Heartbeat CPU 0 instructions: 90000002 cycles: 44565298 heartbeat IPC: 1.48953 cumulative IPC: 1.48422 (Simulation time: 0 hr 6 min 6 sec) 
Heartbeat CPU 0 instructions: 100000001 cycles: 51287551 heartbeat IPC: 1.4876 cumulative IPC: 1.4849 (Simulation time: 0 hr 6 min 47 sec) 
Finished CPU 0 instructions: 50000002 cycles: 33672347 cumulative IPC: 1.4849 (Simulation time: 0 hr 6 min 47 sec) 

ChampSim completed all CPUs

Region of Interest Statistics

CPU 0 cumulative IPC: 1.4849 instructions: 50000002 cycles: 33672347
L1D TOTAL     ACCESS:   19815703  HIT:   17987656  MISS:    1828047
L1D LOAD      ACCESS:    6773419  HIT:    5978979  MISS:     794440
L1D RFO       ACCESS:    6551302  HIT:    6257423  MISS:     293879
L1D PREFETCH  ACCESS:    6490982  HIT:    5751254  MISS:     739728
L1D WRITEBACK ACCESS:          0  HIT:          0  MISS:          0
L1D PREFETCH  REQUESTED:    6823587  ISSUED:    6686397  USEFUL:     169797  USELESS:     569929
L1D AVERAGE MISS LATENCY: 19.1722 cycles
L1I TOTAL     ACCESS:   26497291  HIT:   23012649  MISS:    3484642
L1I LOAD      ACCESS:    9642995  HIT:    9486443  MISS:     156552
L1I RFO       ACCESS:          0  HIT:          0  MISS:          0
L1I PREFETCH  ACCESS:   16854296  HIT:   13526206  MISS:    3328090
L1I WRITEBACK ACCESS:          0  HIT:          0  MISS:          0
L1I PREFETCH  REQUESTED:   20668214  ISSUED:   20668214  USEFUL:    3034016  USELESS:     294059
L1I AVERAGE MISS LATENCY: 17.7451 cycles
L2C TOTAL     ACCESS:    7450721  HIT:    6843382  MISS:     607339
L2C LOAD      ACCESS:     850488  HIT:     756816  MISS:      93672
L2C RFO       ACCESS:     292345  HIT:     242241  MISS:      50104
L2C PREFETCH  ACCESS:    5671497  HIT:    5216874  MISS:     454623
L2C WRITEBACK ACCESS:     636391  HIT:     627451  MISS:       8940
L2C PREFETCH  REQUESTED:    5906378  ISSUED:    5891243  USEFUL:       6153  USELESS:     448259
L2C AVERAGE MISS LATENCY: 33.1145 cycles
LLC TOTAL     ACCESS:    2157906  HIT:    2151577  MISS:       6329
LLC LOAD      ACCESS:      93668  HIT:      93168  MISS:        500
LLC RFO       ACCESS:      50104  HIT:      50104  MISS:          0
LLC PREFETCH  ACCESS:    1916288  HIT:    1910474  MISS:       5814
LLC WRITEBACK ACCESS:      97846  HIT:      97831  MISS:         15
LLC PREFETCH  REQUESTED:          0  ISSUED:          0  USEFUL:        364  USELESS:       2171
LLC AVERAGE MISS LATENCY: 148.935 cycles
Major fault: 0 Minor fault: 1179
CPU 0 L1I EPI prefetcher final stats
CPU 0 L1D next line prefetcher final stats

DRAM Statistics
 CHANNEL 0
 RQ ROW_BUFFER_HIT:       1565  ROW_BUFFER_MISS:       4749
 DBUS_CONGESTED:        714
 WQ ROW_BUFFER_HIT:          0  ROW_BUFFER_MISS:         12  FULL:          0

 AVG_CONGESTED_CYCLE: 4

CPU 0 Branch Prediction Accuracy: 99.8762% MPKI: 0.2296 Average ROB Occupancy at Mispredict: 189.909

Branch types
NOT_BRANCH: 40726131 81.4523%
BRANCH_DIRECT_JUMP: 508373 1.01675%
BRANCH_INDIRECT: 180051 0.360102%
BRANCH_CONDITIONAL: 5999660 11.9993%
BRANCH_DIRECT_CALL: 1086739 2.17348%
BRANCH_INDIRECT_CALL: 206109 0.412218%
BRANCH_RETURN: 1292837 2.58567%
BRANCH_OTHER: 0 0%

