Initialize SIGNATURE TABLE
ST_SET: 1
ST_WAY: 256
ST_TAG_BIT: 16
ST_TAG_MASK: ffff

Initialize PATTERN TABLE
PT_SET: 512
PT_WAY: 4
SIG_DELTA_BIT: 7
C_SIG_BIT: 4
C_DELTA_BIT: 4

Initialize PREFETCH FILTER
FILTER_SET: 1024

*** ChampSim Multicore Out-of-Order Simulator ***

Warmup Instructions: 50000000
Simulation Instructions: 50000000
Number of CPUs: 1
LLC sets: 2048
LLC ways: 16
Off-chip DRAM Size: 4096 MB Channels: 1 Width: 64-bit Data Rate: 3200 MT/s

CPU 0 runs /home/tapatil/CSE240C/SA1/ChampSim-master/ipc1_public/server_017.champsimtrace.xz
L1I D-JOLT instruction prefetcher has been constructed!
CPU 0 L1D next line prefetcher
Heartbeat CPU 0 instructions: 10000001 cycles: 3623590 heartbeat IPC: 2.75969 cumulative IPC: 2.75969 (Simulation time: 0 hr 0 min 35 sec) 
Heartbeat CPU 0 instructions: 20000000 cycles: 7244798 heartbeat IPC: 2.76151 cumulative IPC: 2.7606 (Simulation time: 0 hr 1 min 10 sec) 
Heartbeat CPU 0 instructions: 30000002 cycles: 10872845 heartbeat IPC: 2.7563 cumulative IPC: 2.75917 (Simulation time: 0 hr 1 min 46 sec) 
Heartbeat CPU 0 instructions: 40000000 cycles: 14495993 heartbeat IPC: 2.76003 cumulative IPC: 2.75938 (Simulation time: 0 hr 2 min 21 sec) 
Heartbeat CPU 0 instructions: 50000001 cycles: 18130186 heartbeat IPC: 2.75164 cumulative IPC: 2.75783 (Simulation time: 0 hr 2 min 56 sec) 

Warmup complete CPU 0 instructions: 50000001 cycles: 18130186 (Simulation time: 0 hr 2 min 56 sec) 

Heartbeat CPU 0 instructions: 60000002 cycles: 35569106 heartbeat IPC: 0.57343 cumulative IPC: 0.57343 (Simulation time: 0 hr 3 min 46 sec) 
Heartbeat CPU 0 instructions: 70000002 cycles: 53222264 heartbeat IPC: 0.566471 cumulative IPC: 0.569929 (Simulation time: 0 hr 4 min 35 sec) 
Heartbeat CPU 0 instructions: 80000000 cycles: 70528194 heartbeat IPC: 0.577837 cumulative IPC: 0.572541 (Simulation time: 0 hr 5 min 26 sec) 
Heartbeat CPU 0 instructions: 90000002 cycles: 93721679 heartbeat IPC: 0.431156 cumulative IPC: 0.52916 (Simulation time: 0 hr 6 min 15 sec) 
Heartbeat CPU 0 instructions: 100000003 cycles: 113627446 heartbeat IPC: 0.502367 cumulative IPC: 0.523575 (Simulation time: 0 hr 7 min 4 sec) 
Finished CPU 0 instructions: 50000002 cycles: 95497260 cumulative IPC: 0.523575 (Simulation time: 0 hr 7 min 4 sec) 

ChampSim completed all CPUs

Region of Interest Statistics

CPU 0 cumulative IPC: 0.523575 instructions: 50000002 cycles: 95497260
L1D TOTAL     ACCESS:   18369328  HIT:   16203788  MISS:    2165540
L1D LOAD      ACCESS:    7023752  HIT:    6279270  MISS:     744482
L1D RFO       ACCESS:    5513483  HIT:    4654237  MISS:     859246
L1D PREFETCH  ACCESS:    5832093  HIT:    5270281  MISS:     561812
L1D WRITEBACK ACCESS:          0  HIT:          0  MISS:          0
L1D PREFETCH  REQUESTED:    7060879  ISSUED:    6870963  USEFUL:     199473  USELESS:     362400
L1D AVERAGE MISS LATENCY: 176.676 cycles
L1I TOTAL     ACCESS:   17531586  HIT:   14493407  MISS:    3038179
L1I LOAD      ACCESS:    9902414  HIT:    9865393  MISS:      37021
L1I RFO       ACCESS:          0  HIT:          0  MISS:          0
L1I PREFETCH  ACCESS:    7629172  HIT:    4628014  MISS:    3001158
L1I WRITEBACK ACCESS:          0  HIT:          0  MISS:          0
L1I PREFETCH  REQUESTED:    8323125  ISSUED:    8272449  USEFUL:    2434591  USELESS:     566582
L1I AVERAGE MISS LATENCY: 18.3272 cycles
L2C TOTAL     ACCESS:    7620158  HIT:    5774313  MISS:    1845845
L2C LOAD      ACCESS:     571586  HIT:     241693  MISS:     329893
L2C RFO       ACCESS:     858711  HIT:      17866  MISS:     840845
L2C PREFETCH  ACCESS:    5066970  HIT:    4393886  MISS:     673084
L2C WRITEBACK ACCESS:    1122891  HIT:    1120868  MISS:       2023
L2C PREFETCH  REQUESTED:    4633431  ISSUED:    4629864  USEFUL:      21009  USELESS:     652765
L2C AVERAGE MISS LATENCY: 211.494 cycles
LLC TOTAL     ACCESS:    4187623  HIT:    2636064  MISS:    1551559
LLC LOAD      ACCESS:     329838  HIT:     173576  MISS:     156262
LLC RFO       ACCESS:     840845  HIT:     121871  MISS:     718974
LLC PREFETCH  ACCESS:    1955173  HIT:    1281071  MISS:     674102
LLC WRITEBACK ACCESS:    1061767  HIT:    1059546  MISS:       2221
LLC PREFETCH  REQUESTED:          0  ISSUED:          0  USEFUL:      49564  USELESS:     623519
LLC AVERAGE MISS LATENCY: 269.078 cycles
Major fault: 0 Minor fault: 24698
CPU 0 L1D next line prefetcher final stats

DRAM Statistics
 CHANNEL 0
 RQ ROW_BUFFER_HIT:     381494  ROW_BUFFER_MISS:    1167609
 DBUS_CONGESTED:    1489492
 WQ ROW_BUFFER_HIT:     246871  ROW_BUFFER_MISS:     632581  FULL:          0

 AVG_CONGESTED_CYCLE: 6

CPU 0 Branch Prediction Accuracy: 99.2833% MPKI: 1.20568 Average ROB Occupancy at Mispredict: 182.459

Branch types
NOT_BRANCH: 41588346 83.1767%
BRANCH_DIRECT_JUMP: 464501 0.929002%
BRANCH_INDIRECT: 45704 0.091408%
BRANCH_CONDITIONAL: 6147408 12.2948%
BRANCH_DIRECT_CALL: 675450 1.3509%
BRANCH_INDIRECT_CALL: 201532 0.403064%
BRANCH_RETURN: 876985 1.75397%
BRANCH_OTHER: 0 0%

