Initialize SIGNATURE TABLE
ST_SET: 1
ST_WAY: 256
ST_TAG_BIT: 16
ST_TAG_MASK: ffff

Initialize PATTERN TABLE
PT_SET: 512
PT_WAY: 4
SIG_DELTA_BIT: 7
C_SIG_BIT: 4
C_DELTA_BIT: 4

Initialize PREFETCH FILTER
FILTER_SET: 1024

*** ChampSim Multicore Out-of-Order Simulator ***

Warmup Instructions: 50000000
Simulation Instructions: 50000000
Number of CPUs: 1
LLC sets: 2048
LLC ways: 16
Off-chip DRAM Size: 4096 MB Channels: 1 Width: 64-bit Data Rate: 3200 MT/s

CPU 0 runs /home/tapatil/CSE240C/SA1/ChampSim-master/ipc1_public/server_027.champsimtrace.xz
L1I D-JOLT instruction prefetcher has been constructed!
CPU 0 L1D next line prefetcher
Heartbeat CPU 0 instructions: 10000001 cycles: 3524726 heartbeat IPC: 2.8371 cumulative IPC: 2.8371 (Simulation time: 0 hr 0 min 35 sec) 
Heartbeat CPU 0 instructions: 20000001 cycles: 7054697 heartbeat IPC: 2.83288 cumulative IPC: 2.83499 (Simulation time: 0 hr 1 min 9 sec) 
Heartbeat CPU 0 instructions: 30000002 cycles: 10579816 heartbeat IPC: 2.83678 cumulative IPC: 2.83559 (Simulation time: 0 hr 1 min 42 sec) 
Heartbeat CPU 0 instructions: 40000000 cycles: 14110777 heartbeat IPC: 2.83209 cumulative IPC: 2.83471 (Simulation time: 0 hr 2 min 15 sec) 
Heartbeat CPU 0 instructions: 50000001 cycles: 17635630 heartbeat IPC: 2.837 cumulative IPC: 2.83517 (Simulation time: 0 hr 2 min 49 sec) 

Warmup complete CPU 0 instructions: 50000001 cycles: 17635630 (Simulation time: 0 hr 2 min 49 sec) 

Heartbeat CPU 0 instructions: 60000002 cycles: 24506234 heartbeat IPC: 1.45548 cumulative IPC: 1.45548 (Simulation time: 0 hr 3 min 26 sec) 
Heartbeat CPU 0 instructions: 70000003 cycles: 31325777 heartbeat IPC: 1.46637 cumulative IPC: 1.4609 (Simulation time: 0 hr 4 min 3 sec) 
Heartbeat CPU 0 instructions: 80000002 cycles: 38153149 heartbeat IPC: 1.46469 cumulative IPC: 1.46217 (Simulation time: 0 hr 4 min 38 sec) 
Heartbeat CPU 0 instructions: 90000001 cycles: 45070810 heartbeat IPC: 1.44558 cumulative IPC: 1.45798 (Simulation time: 0 hr 5 min 15 sec) 
Heartbeat CPU 0 instructions: 100000002 cycles: 51877166 heartbeat IPC: 1.46922 cumulative IPC: 1.46021 (Simulation time: 0 hr 5 min 50 sec) 
Finished CPU 0 instructions: 50000001 cycles: 34241536 cumulative IPC: 1.46021 (Simulation time: 0 hr 5 min 50 sec) 

ChampSim completed all CPUs

Region of Interest Statistics

CPU 0 cumulative IPC: 1.46021 instructions: 50000001 cycles: 34241536
L1D TOTAL     ACCESS:   19872289  HIT:   18270538  MISS:    1601751
L1D LOAD      ACCESS:    6937712  HIT:    6245263  MISS:     692449
L1D RFO       ACCESS:    6285930  HIT:    6000960  MISS:     284970
L1D PREFETCH  ACCESS:    6648647  HIT:    6024315  MISS:     624332
L1D WRITEBACK ACCESS:          0  HIT:          0  MISS:          0
L1D PREFETCH  REQUESTED:    6982707  ISSUED:    6855439  USEFUL:     149301  USELESS:     475041
L1D AVERAGE MISS LATENCY: 24.2967 cycles
L1I TOTAL     ACCESS:   16058343  HIT:   12720436  MISS:    3337907
L1I LOAD      ACCESS:    9495461  HIT:    9444111  MISS:      51350
L1I RFO       ACCESS:          0  HIT:          0  MISS:          0
L1I PREFETCH  ACCESS:    6562882  HIT:    3276325  MISS:    3286557
L1I WRITEBACK ACCESS:          0  HIT:          0  MISS:          0
L1I PREFETCH  REQUESTED:    6967164  ISSUED:    6885506  USEFUL:    2771072  USELESS:     515528
L1I AVERAGE MISS LATENCY: 20.2679 cycles
L2C TOTAL     ACCESS:    6832287  HIT:    5874974  MISS:     957313
L2C LOAD      ACCESS:     705833  HIT:     554959  MISS:     150874
L2C RFO       ACCESS:     283541  HIT:     191280  MISS:      92261
L2C PREFETCH  ACCESS:    5283716  HIT:    4575105  MISS:     708611
L2C WRITEBACK ACCESS:     559197  HIT:     553630  MISS:       5567
L2C PREFETCH  REQUESTED:    4628427  ISSUED:    4622919  USEFUL:      11146  USELESS:     697268
L2C AVERAGE MISS LATENCY: 37.0113 cycles
LLC TOTAL     ACCESS:    2418897  HIT:    2385416  MISS:      33481
LLC LOAD      ACCESS:     150671  HIT:     147153  MISS:       3518
LLC RFO       ACCESS:      92254  HIT:      78333  MISS:      13921
LLC PREFETCH  ACCESS:    2011962  HIT:    1996074  MISS:      15888
LLC WRITEBACK ACCESS:     164010  HIT:     163856  MISS:        154
LLC PREFETCH  REQUESTED:          0  ISSUED:          0  USEFUL:       1334  USELESS:      14293
LLC AVERAGE MISS LATENCY: 184.855 cycles
Major fault: 0 Minor fault: 2484
CPU 0 L1D next line prefetcher final stats

DRAM Statistics
 CHANNEL 0
 RQ ROW_BUFFER_HIT:      11015  ROW_BUFFER_MISS:      22312
 DBUS_CONGESTED:      22565
 WQ ROW_BUFFER_HIT:       1616  ROW_BUFFER_MISS:      14531  FULL:          0

 AVG_CONGESTED_CYCLE: 6

CPU 0 Branch Prediction Accuracy: 99.8082% MPKI: 0.35064 Average ROB Occupancy at Mispredict: 187.463

Branch types
NOT_BRANCH: 40857507 81.715%
BRANCH_DIRECT_JUMP: 526635 1.05327%
BRANCH_INDIRECT: 205902 0.411804%
BRANCH_CONDITIONAL: 6184049 12.3681%
BRANCH_DIRECT_CALL: 938468 1.87694%
BRANCH_INDIRECT_CALL: 174486 0.348972%
BRANCH_RETURN: 1112959 2.22592%
BRANCH_OTHER: 0 0%

