Initialize SIGNATURE TABLE
ST_SET: 1
ST_WAY: 256
ST_TAG_BIT: 16
ST_TAG_MASK: ffff

Initialize PATTERN TABLE
PT_SET: 512
PT_WAY: 4
SIG_DELTA_BIT: 7
C_SIG_BIT: 4
C_DELTA_BIT: 4

Initialize PREFETCH FILTER
FILTER_SET: 1024

*** ChampSim Multicore Out-of-Order Simulator ***

Warmup Instructions: 50000000
Simulation Instructions: 50000000
Number of CPUs: 1
LLC sets: 2048
LLC ways: 16
Off-chip DRAM Size: 4096 MB Channels: 1 Width: 64-bit Data Rate: 3200 MT/s

CPU 0 runs /home/tapatil/CSE240C/SA1/ChampSim-master/ipc1_public/server_026.champsimtrace.xz
L1I D-JOLT instruction prefetcher has been constructed!
CPU 0 L1D next line prefetcher
Heartbeat CPU 0 instructions: 10000000 cycles: 3524050 heartbeat IPC: 2.83764 cumulative IPC: 2.83764 (Simulation time: 0 hr 0 min 33 sec) 
Heartbeat CPU 0 instructions: 20000002 cycles: 7053840 heartbeat IPC: 2.83303 cumulative IPC: 2.83534 (Simulation time: 0 hr 1 min 6 sec) 
Heartbeat CPU 0 instructions: 30000000 cycles: 10573603 heartbeat IPC: 2.8411 cumulative IPC: 2.83725 (Simulation time: 0 hr 1 min 40 sec) 
Heartbeat CPU 0 instructions: 40000003 cycles: 14102440 heartbeat IPC: 2.8338 cumulative IPC: 2.83639 (Simulation time: 0 hr 2 min 13 sec) 
Heartbeat CPU 0 instructions: 50000000 cycles: 17623613 heartbeat IPC: 2.83996 cumulative IPC: 2.8371 (Simulation time: 0 hr 2 min 46 sec) 

Warmup complete CPU 0 instructions: 50000004 cycles: 17623614 (Simulation time: 0 hr 2 min 46 sec) 

*** Reached end of trace for Core: 0 Repeating trace: /home/tapatil/CSE240C/SA1/ChampSim-master/ipc1_public/server_026.champsimtrace.xz
Heartbeat CPU 0 instructions: 60000000 cycles: 24536019 heartbeat IPC: 1.44667 cumulative IPC: 1.44667 (Simulation time: 0 hr 3 min 21 sec) 
Heartbeat CPU 0 instructions: 70000003 cycles: 31334501 heartbeat IPC: 1.47092 cumulative IPC: 1.45869 (Simulation time: 0 hr 3 min 57 sec) 
Heartbeat CPU 0 instructions: 80000002 cycles: 38222088 heartbeat IPC: 1.45189 cumulative IPC: 1.45642 (Simulation time: 0 hr 4 min 32 sec) 
Heartbeat CPU 0 instructions: 90000002 cycles: 45023088 heartbeat IPC: 1.47037 cumulative IPC: 1.45988 (Simulation time: 0 hr 5 min 7 sec) 
Heartbeat CPU 0 instructions: 100000000 cycles: 51894925 heartbeat IPC: 1.45521 cumulative IPC: 1.45895 (Simulation time: 0 hr 5 min 42 sec) 
Finished CPU 0 instructions: 50000000 cycles: 34271312 cumulative IPC: 1.45895 (Simulation time: 0 hr 5 min 42 sec) 

ChampSim completed all CPUs

Region of Interest Statistics

CPU 0 cumulative IPC: 1.45895 instructions: 50000000 cycles: 34271312
L1D TOTAL     ACCESS:   19753996  HIT:   18108993  MISS:    1645003
L1D LOAD      ACCESS:    6925019  HIT:    6195979  MISS:     729040
L1D RFO       ACCESS:    6240661  HIT:    5954418  MISS:     286243
L1D PREFETCH  ACCESS:    6588316  HIT:    5958596  MISS:     629720
L1D WRITEBACK ACCESS:          0  HIT:          0  MISS:          0
L1D PREFETCH  REQUESTED:    6972515  ISSUED:    6830270  USEFUL:     152031  USELESS:     477699
L1D AVERAGE MISS LATENCY: 24.414 cycles
L1I TOTAL     ACCESS:   15745155  HIT:   12582717  MISS:    3162438
L1I LOAD      ACCESS:    9508412  HIT:    9462971  MISS:      45441
L1I RFO       ACCESS:          0  HIT:          0  MISS:          0
L1I PREFETCH  ACCESS:    6236743  HIT:    3119746  MISS:    3116997
L1I WRITEBACK ACCESS:          0  HIT:          0  MISS:          0
L1I PREFETCH  REQUESTED:    6584847  ISSUED:    6520143  USEFUL:    2739770  USELESS:     377209
L1I AVERAGE MISS LATENCY: 19.9739 cycles
L2C TOTAL     ACCESS:    6640522  HIT:    5715232  MISS:     925290
L2C LOAD      ACCESS:     721566  HIT:     569849  MISS:     151717
L2C RFO       ACCESS:     284537  HIT:     183180  MISS:     101357
L2C PREFETCH  ACCESS:    5073234  HIT:    4405490  MISS:     667744
L2C WRITEBACK ACCESS:     561185  HIT:     556713  MISS:       4472
L2C PREFETCH  REQUESTED:    4287139  ISSUED:    4283619  USEFUL:      12338  USELESS:     655199
L2C AVERAGE MISS LATENCY: 37.3407 cycles
LLC TOTAL     ACCESS:    2308237  HIT:    2273647  MISS:      34590
LLC LOAD      ACCESS:     151467  HIT:     148043  MISS:       3424
LLC RFO       ACCESS:     101335  HIT:      86850  MISS:      14485
LLC PREFETCH  ACCESS:    1883149  HIT:    1866656  MISS:      16493
LLC WRITEBACK ACCESS:     172286  HIT:     172098  MISS:        188
LLC PREFETCH  REQUESTED:          0  ISSUED:          0  USEFUL:       1012  USELESS:      15652
LLC AVERAGE MISS LATENCY: 191.179 cycles
Major fault: 0 Minor fault: 2173
CPU 0 L1D next line prefetcher final stats

DRAM Statistics
 CHANNEL 0
 RQ ROW_BUFFER_HIT:      12338  ROW_BUFFER_MISS:      22059
 DBUS_CONGESTED:      23423
 WQ ROW_BUFFER_HIT:       1498  ROW_BUFFER_MISS:      14223  FULL:          0

 AVG_CONGESTED_CYCLE: 6

CPU 0 Branch Prediction Accuracy: 99.822% MPKI: 0.32584 Average ROB Occupancy at Mispredict: 201.467

Branch types
NOT_BRANCH: 40848584 81.6972%
BRANCH_DIRECT_JUMP: 522045 1.04409%
BRANCH_INDIRECT: 204034 0.408068%
BRANCH_CONDITIONAL: 6212964 12.4259%
BRANCH_DIRECT_CALL: 932393 1.86479%
BRANCH_INDIRECT_CALL: 173764 0.347528%
BRANCH_RETURN: 1106152 2.2123%
BRANCH_OTHER: 0 0%

