Initialize SIGNATURE TABLE
ST_SET: 1
ST_WAY: 256
ST_TAG_BIT: 16
ST_TAG_MASK: ffff

Initialize PATTERN TABLE
PT_SET: 512
PT_WAY: 4
SIG_DELTA_BIT: 7
C_SIG_BIT: 4
C_DELTA_BIT: 4

Initialize PREFETCH FILTER
FILTER_SET: 1024

*** ChampSim Multicore Out-of-Order Simulator ***

Warmup Instructions: 50000000
Simulation Instructions: 50000000
Number of CPUs: 1
LLC sets: 2048
LLC ways: 16
Off-chip DRAM Size: 4096 MB Channels: 1 Width: 64-bit Data Rate: 3200 MT/s

CPU 0 runs /home/tapatil/CSE240C/SA1/ChampSim-master/ipc1_public/server_013.champsimtrace.xz
CPU 0 EPI prefetcher
CPU 0 L1D next line prefetcher
Heartbeat CPU 0 instructions: 10000000 cycles: 3215174 heartbeat IPC: 3.11025 cumulative IPC: 3.11025 (Simulation time: 0 hr 0 min 37 sec) 
Heartbeat CPU 0 instructions: 20000001 cycles: 6419800 heartbeat IPC: 3.12049 cumulative IPC: 3.11536 (Simulation time: 0 hr 1 min 14 sec) 
Heartbeat CPU 0 instructions: 30000002 cycles: 9628092 heartbeat IPC: 3.11692 cumulative IPC: 3.11588 (Simulation time: 0 hr 1 min 51 sec) 
Heartbeat CPU 0 instructions: 40000002 cycles: 12831771 heartbeat IPC: 3.12141 cumulative IPC: 3.11726 (Simulation time: 0 hr 2 min 28 sec) 
Heartbeat CPU 0 instructions: 50000000 cycles: 16035961 heartbeat IPC: 3.12091 cumulative IPC: 3.11799 (Simulation time: 0 hr 3 min 5 sec) 

Warmup complete CPU 0 instructions: 50000004 cycles: 16035962 (Simulation time: 0 hr 3 min 5 sec) 

Heartbeat CPU 0 instructions: 60000000 cycles: 23535331 heartbeat IPC: 1.33345 cumulative IPC: 1.33344 (Simulation time: 0 hr 3 min 42 sec) 
Heartbeat CPU 0 instructions: 70000002 cycles: 31195331 heartbeat IPC: 1.30548 cumulative IPC: 1.31932 (Simulation time: 0 hr 4 min 18 sec) 
Heartbeat CPU 0 instructions: 80000003 cycles: 38353868 heartbeat IPC: 1.39693 cumulative IPC: 1.34421 (Simulation time: 0 hr 4 min 54 sec) 
Heartbeat CPU 0 instructions: 90000003 cycles: 45679791 heartbeat IPC: 1.36502 cumulative IPC: 1.34935 (Simulation time: 0 hr 5 min 31 sec) 
Heartbeat CPU 0 instructions: 100000003 cycles: 53021723 heartbeat IPC: 1.36204 cumulative IPC: 1.35187 (Simulation time: 0 hr 6 min 7 sec) 
Finished CPU 0 instructions: 50000003 cycles: 36985762 cumulative IPC: 1.35187 (Simulation time: 0 hr 6 min 7 sec) 

ChampSim completed all CPUs

Region of Interest Statistics

CPU 0 cumulative IPC: 1.35187 instructions: 50000003 cycles: 36985762
L1D TOTAL     ACCESS:   17292693  HIT:   16226286  MISS:    1066407
L1D LOAD      ACCESS:    6301625  HIT:    5801311  MISS:     500314
L1D RFO       ACCESS:    4927167  HIT:    4847042  MISS:      80125
L1D PREFETCH  ACCESS:    6063901  HIT:    5577933  MISS:     485968
L1D WRITEBACK ACCESS:          0  HIT:          0  MISS:          0
L1D PREFETCH  REQUESTED:    6336014  ISSUED:    6241778  USEFUL:     134420  USELESS:     351556
L1D AVERAGE MISS LATENCY: 42.2133 cycles
L1I TOTAL     ACCESS:   33422361  HIT:   31474731  MISS:    1947630
L1I LOAD      ACCESS:    8703274  HIT:    8627736  MISS:      75538
L1I RFO       ACCESS:          0  HIT:          0  MISS:          0
L1I PREFETCH  ACCESS:   24719087  HIT:   22846995  MISS:    1872092
L1I WRITEBACK ACCESS:          0  HIT:          0  MISS:          0
L1I PREFETCH  REQUESTED:   32910760  ISSUED:   32910760  USEFUL:    1372488  USELESS:     499592
L1I AVERAGE MISS LATENCY: 33.6663 cycles
L2C TOTAL     ACCESS:    3873287  HIT:    2493548  MISS:    1379739
L2C LOAD      ACCESS:     522751  HIT:     243196  MISS:     279555
L2C RFO       ACCESS:      78813  HIT:      30323  MISS:      48490
L2C PREFETCH  ACCESS:    2995937  HIT:    1946519  MISS:    1049418
L2C WRITEBACK ACCESS:     275786  HIT:     273510  MISS:       2276
L2C PREFETCH  REQUESTED:    3929059  ISSUED:    3921159  USEFUL:      30250  USELESS:    1018466
L2C AVERAGE MISS LATENCY: 47.7228 cycles
LLC TOTAL     ACCESS:    2608537  HIT:    2434687  MISS:     173850
LLC LOAD      ACCESS:     275306  HIT:     253078  MISS:      22228
LLC RFO       ACCESS:      48478  HIT:      38584  MISS:       9894
LLC PREFETCH  ACCESS:    2110164  HIT:    1968766  MISS:     141398
LLC WRITEBACK ACCESS:     174589  HIT:     174259  MISS:        330
LLC PREFETCH  REQUESTED:          0  ISSUED:          0  USEFUL:      11193  USELESS:     128338
LLC AVERAGE MISS LATENCY: 177.074 cycles
Major fault: 0 Minor fault: 6210
CPU 0 L1I EPI prefetcher final stats
CPU 0 L1D next line prefetcher final stats

DRAM Statistics
 CHANNEL 0
 RQ ROW_BUFFER_HIT:      29871  ROW_BUFFER_MISS:     143637
 DBUS_CONGESTED:      80572
 WQ ROW_BUFFER_HIT:      12116  ROW_BUFFER_MISS:      51323  FULL:          0

 AVG_CONGESTED_CYCLE: 5

CPU 0 Branch Prediction Accuracy: 99.4114% MPKI: 1.0933 Average ROB Occupancy at Mispredict: 126.486

Branch types
NOT_BRANCH: 40713280 81.4266%
BRANCH_DIRECT_JUMP: 463701 0.927402%
BRANCH_INDIRECT: 146544 0.293088%
BRANCH_CONDITIONAL: 6981957 13.9639%
BRANCH_DIRECT_CALL: 665005 1.33001%
BRANCH_INDIRECT_CALL: 165152 0.330304%
BRANCH_RETURN: 864314 1.72863%
BRANCH_OTHER: 0 0%

