Initialize SIGNATURE TABLE
ST_SET: 1
ST_WAY: 256
ST_TAG_BIT: 16
ST_TAG_MASK: ffff

Initialize PATTERN TABLE
PT_SET: 512
PT_WAY: 4
SIG_DELTA_BIT: 7
C_SIG_BIT: 4
C_DELTA_BIT: 4

Initialize PREFETCH FILTER
FILTER_SET: 1024

*** ChampSim Multicore Out-of-Order Simulator ***

Warmup Instructions: 50000000
Simulation Instructions: 50000000
Number of CPUs: 1
LLC sets: 2048
LLC ways: 16
Off-chip DRAM Size: 4096 MB Channels: 1 Width: 64-bit Data Rate: 3200 MT/s

CPU 0 runs /home/tapatil/CSE240C/SA1/ChampSim-master/ipc1_public/server_017.champsimtrace.xz
CPU 0 EPI prefetcher
CPU 0 L1D next line prefetcher
Heartbeat CPU 0 instructions: 10000001 cycles: 3622630 heartbeat IPC: 2.76043 cumulative IPC: 2.76043 (Simulation time: 0 hr 0 min 41 sec) 
Heartbeat CPU 0 instructions: 20000000 cycles: 7243026 heartbeat IPC: 2.76213 cumulative IPC: 2.76128 (Simulation time: 0 hr 1 min 20 sec) 
Heartbeat CPU 0 instructions: 30000002 cycles: 10870057 heartbeat IPC: 2.75708 cumulative IPC: 2.75988 (Simulation time: 0 hr 2 min 1 sec) 
Heartbeat CPU 0 instructions: 40000000 cycles: 14492311 heartbeat IPC: 2.76071 cumulative IPC: 2.76008 (Simulation time: 0 hr 2 min 42 sec) 
Heartbeat CPU 0 instructions: 50000001 cycles: 18125147 heartbeat IPC: 2.75267 cumulative IPC: 2.7586 (Simulation time: 0 hr 3 min 23 sec) 

Warmup complete CPU 0 instructions: 50000001 cycles: 18125147 (Simulation time: 0 hr 3 min 23 sec) 

Heartbeat CPU 0 instructions: 60000002 cycles: 35672037 heartbeat IPC: 0.569902 cumulative IPC: 0.569902 (Simulation time: 0 hr 4 min 18 sec) 
Heartbeat CPU 0 instructions: 70000002 cycles: 53439221 heartbeat IPC: 0.562835 cumulative IPC: 0.566346 (Simulation time: 0 hr 5 min 14 sec) 
Heartbeat CPU 0 instructions: 80000000 cycles: 70793423 heartbeat IPC: 0.576229 cumulative IPC: 0.569603 (Simulation time: 0 hr 6 min 10 sec) 
Heartbeat CPU 0 instructions: 90000002 cycles: 94007864 heartbeat IPC: 0.430766 cumulative IPC: 0.527129 (Simulation time: 0 hr 7 min 5 sec) 
Heartbeat CPU 0 instructions: 100000003 cycles: 113924570 heartbeat IPC: 0.502091 cumulative IPC: 0.521924 (Simulation time: 0 hr 7 min 59 sec) 
Finished CPU 0 instructions: 50000002 cycles: 95799423 cumulative IPC: 0.521924 (Simulation time: 0 hr 7 min 59 sec) 

ChampSim completed all CPUs

Region of Interest Statistics

CPU 0 cumulative IPC: 0.521924 instructions: 50000002 cycles: 95799423
L1D TOTAL     ACCESS:   18367757  HIT:   16202212  MISS:    2165545
L1D LOAD      ACCESS:    7022427  HIT:    6277352  MISS:     745075
L1D RFO       ACCESS:    5514447  HIT:    4655310  MISS:     859137
L1D PREFETCH  ACCESS:    5830883  HIT:    5269550  MISS:     561333
L1D WRITEBACK ACCESS:          0  HIT:          0  MISS:          0
L1D PREFETCH  REQUESTED:    7059755  ISSUED:    6869162  USEFUL:     199000  USELESS:     362394
L1D AVERAGE MISS LATENCY: 175.186 cycles
L1I TOTAL     ACCESS:   31117427  HIT:   28785995  MISS:    2331432
L1I LOAD      ACCESS:    9892655  HIT:    9875854  MISS:      16801
L1I RFO       ACCESS:          0  HIT:          0  MISS:          0
L1I PREFETCH  ACCESS:   21224772  HIT:   18910141  MISS:    2314631
L1I WRITEBACK ACCESS:          0  HIT:          0  MISS:          0
L1I PREFETCH  REQUESTED:   25141218  ISSUED:   25141218  USEFUL:    2124913  USELESS:     189728
L1I AVERAGE MISS LATENCY: 19.4546 cycles
L2C TOTAL     ACCESS:    6667817  HIT:    4822837  MISS:    1844980
L2C LOAD      ACCESS:     551959  HIT:     223492  MISS:     328467
L2C RFO       ACCESS:     858648  HIT:      17351  MISS:     841297
L2C PREFETCH  ACCESS:    4134384  HIT:    3461236  MISS:     673148
L2C WRITEBACK ACCESS:    1122826  HIT:    1120758  MISS:       2068
L2C PREFETCH  REQUESTED:    4101877  ISSUED:    4096742  USEFUL:      22070  USELESS:     651829
L2C AVERAGE MISS LATENCY: 209.581 cycles
LLC TOTAL     ACCESS:    4095364  HIT:    2551943  MISS:    1543421
LLC LOAD      ACCESS:     328405  HIT:     172541  MISS:     155864
LLC RFO       ACCESS:     841293  HIT:     123074  MISS:     718219
LLC PREFETCH  ACCESS:    1864276  HIT:    1197102  MISS:     667174
LLC WRITEBACK ACCESS:    1061390  HIT:    1059226  MISS:       2164
LLC PREFETCH  REQUESTED:          0  ISSUED:          0  USEFUL:      49351  USELESS:     617083
LLC AVERAGE MISS LATENCY: 265.19 cycles
Major fault: 0 Minor fault: 24697
CPU 0 L1I EPI prefetcher final stats
CPU 0 L1D next line prefetcher final stats

DRAM Statistics
 CHANNEL 0
 RQ ROW_BUFFER_HIT:     374301  ROW_BUFFER_MISS:    1166784
 DBUS_CONGESTED:    1484717
 WQ ROW_BUFFER_HIT:     253811  ROW_BUFFER_MISS:     622656  FULL:          0

 AVG_CONGESTED_CYCLE: 6

CPU 0 Branch Prediction Accuracy: 99.2833% MPKI: 1.20568 Average ROB Occupancy at Mispredict: 182.294

Branch types
NOT_BRANCH: 41588346 83.1767%
BRANCH_DIRECT_JUMP: 464501 0.929002%
BRANCH_INDIRECT: 45704 0.091408%
BRANCH_CONDITIONAL: 6147408 12.2948%
BRANCH_DIRECT_CALL: 675450 1.3509%
BRANCH_INDIRECT_CALL: 201532 0.403064%
BRANCH_RETURN: 876985 1.75397%
BRANCH_OTHER: 0 0%

