Initialize SIGNATURE TABLE
ST_SET: 1
ST_WAY: 256
ST_TAG_BIT: 16
ST_TAG_MASK: ffff

Initialize PATTERN TABLE
PT_SET: 512
PT_WAY: 4
SIG_DELTA_BIT: 7
C_SIG_BIT: 4
C_DELTA_BIT: 4

Initialize PREFETCH FILTER
FILTER_SET: 1024

*** ChampSim Multicore Out-of-Order Simulator ***

Warmup Instructions: 50000000
Simulation Instructions: 50000000
Number of CPUs: 1
LLC sets: 2048
LLC ways: 16
Off-chip DRAM Size: 4096 MB Channels: 1 Width: 64-bit Data Rate: 3200 MT/s

CPU 0 runs /home/tapatil/CSE240C/SA1/ChampSim-master/ipc1_public/server_018.champsimtrace.xz
CPU 0 EPI prefetcher
CPU 0 L1D next line prefetcher
Heartbeat CPU 0 instructions: 10000003 cycles: 3615524 heartbeat IPC: 2.76585 cumulative IPC: 2.76585 (Simulation time: 0 hr 0 min 39 sec) 
Heartbeat CPU 0 instructions: 20000001 cycles: 7236100 heartbeat IPC: 2.76199 cumulative IPC: 2.76392 (Simulation time: 0 hr 1 min 19 sec) 
Heartbeat CPU 0 instructions: 30000003 cycles: 10711686 heartbeat IPC: 2.87721 cumulative IPC: 2.80068 (Simulation time: 0 hr 1 min 56 sec) 
Heartbeat CPU 0 instructions: 40000000 cycles: 14223360 heartbeat IPC: 2.84764 cumulative IPC: 2.81227 (Simulation time: 0 hr 2 min 33 sec) 
Heartbeat CPU 0 instructions: 50000003 cycles: 17840330 heartbeat IPC: 2.76475 cumulative IPC: 2.80264 (Simulation time: 0 hr 3 min 13 sec) 

Warmup complete CPU 0 instructions: 50000003 cycles: 17840330 (Simulation time: 0 hr 3 min 13 sec) 

Heartbeat CPU 0 instructions: 60000000 cycles: 35288886 heartbeat IPC: 0.573113 cumulative IPC: 0.573113 (Simulation time: 0 hr 4 min 6 sec) 
Heartbeat CPU 0 instructions: 70000001 cycles: 52703881 heartbeat IPC: 0.574218 cumulative IPC: 0.573665 (Simulation time: 0 hr 5 min 1 sec) 
Heartbeat CPU 0 instructions: 80000000 cycles: 70072242 heartbeat IPC: 0.57576 cumulative IPC: 0.574361 (Simulation time: 0 hr 5 min 55 sec) 
Heartbeat CPU 0 instructions: 90000002 cycles: 87353916 heartbeat IPC: 0.578648 cumulative IPC: 0.575427 (Simulation time: 0 hr 6 min 51 sec) 
Heartbeat CPU 0 instructions: 100000001 cycles: 104643771 heartbeat IPC: 0.578374 cumulative IPC: 0.576014 (Simulation time: 0 hr 7 min 46 sec) 
Finished CPU 0 instructions: 50000002 cycles: 86803443 cumulative IPC: 0.576014 (Simulation time: 0 hr 7 min 46 sec) 

ChampSim completed all CPUs

Region of Interest Statistics

CPU 0 cumulative IPC: 0.576014 instructions: 50000002 cycles: 86803443
L1D TOTAL     ACCESS:   18611183  HIT:   16393472  MISS:    2217711
L1D LOAD      ACCESS:    7040958  HIT:    6316836  MISS:     724122
L1D RFO       ACCESS:    5805502  HIT:    4853272  MISS:     952230
L1D PREFETCH  ACCESS:    5764723  HIT:    5223364  MISS:     541359
L1D WRITEBACK ACCESS:          0  HIT:          0  MISS:          0
L1D PREFETCH  REQUESTED:    7082514  ISSUED:    6878546  USEFUL:     201605  USELESS:     339843
L1D AVERAGE MISS LATENCY: 174.789 cycles
L1I TOTAL     ACCESS:   31384536  HIT:   28957324  MISS:    2427212
L1I LOAD      ACCESS:   10103671  HIT:   10080148  MISS:      23523
L1I RFO       ACCESS:          0  HIT:          0  MISS:          0
L1I PREFETCH  ACCESS:   21280865  HIT:   18877176  MISS:    2403689
L1I WRITEBACK ACCESS:          0  HIT:          0  MISS:          0
L1I PREFETCH  REQUESTED:   25201325  ISSUED:   25201325  USEFUL:    2306999  USELESS:      96712
L1I AVERAGE MISS LATENCY: 18.8274 cycles
L2C TOTAL     ACCESS:    6889815  HIT:    5025748  MISS:    1864067
L2C LOAD      ACCESS:     513477  HIT:     250097  MISS:     263380
L2C RFO       ACCESS:     951688  HIT:      20418  MISS:     931270
L2C PREFETCH  ACCESS:    4254657  HIT:    3587896  MISS:     666761
L2C WRITEBACK ACCESS:    1169993  HIT:    1167337  MISS:       2656
L2C PREFETCH  REQUESTED:    4139961  ISSUED:    4133355  USEFUL:      23304  USELESS:     644512
L2C AVERAGE MISS LATENCY: 212.272 cycles
LLC TOTAL     ACCESS:    4020407  HIT:    2596673  MISS:    1423734
LLC LOAD      ACCESS:     263249  HIT:     166897  MISS:      96352
LLC RFO       ACCESS:     931257  HIT:     138029  MISS:     793228
LLC PREFETCH  ACCESS:    1725294  HIT:    1193075  MISS:     532219
LLC WRITEBACK ACCESS:    1100607  HIT:    1098672  MISS:       1935
LLC PREFETCH  REQUESTED:          0  ISSUED:          0  USEFUL:      29646  USELESS:     502958
LLC AVERAGE MISS LATENCY: 280.489 cycles
Major fault: 0 Minor fault: 22444
CPU 0 L1I EPI prefetcher final stats
CPU 0 L1D next line prefetcher final stats

DRAM Statistics
 CHANNEL 0
 RQ ROW_BUFFER_HIT:     403293  ROW_BUFFER_MISS:    1018239
 DBUS_CONGESTED:    1430777
 WQ ROW_BUFFER_HIT:     259403  ROW_BUFFER_MISS:     632493  FULL:          0

 AVG_CONGESTED_CYCLE: 6

CPU 0 Branch Prediction Accuracy: 99.7114% MPKI: 0.47678 Average ROB Occupancy at Mispredict: 213.149

Branch types
NOT_BRANCH: 41740997 83.482%
BRANCH_DIRECT_JUMP: 458652 0.917304%
BRANCH_INDIRECT: 48282 0.096564%
BRANCH_CONDITIONAL: 5930880 11.8618%
BRANCH_DIRECT_CALL: 744230 1.48846%
BRANCH_INDIRECT_CALL: 166336 0.332672%
BRANCH_RETURN: 910589 1.82118%
BRANCH_OTHER: 0 0%

