Initialize SIGNATURE TABLE
ST_SET: 1
ST_WAY: 256
ST_TAG_BIT: 16
ST_TAG_MASK: ffff

Initialize PATTERN TABLE
PT_SET: 512
PT_WAY: 4
SIG_DELTA_BIT: 7
C_SIG_BIT: 4
C_DELTA_BIT: 4

Initialize PREFETCH FILTER
FILTER_SET: 1024

*** ChampSim Multicore Out-of-Order Simulator ***

Warmup Instructions: 50000000
Simulation Instructions: 50000000
Number of CPUs: 1
LLC sets: 2048
LLC ways: 16
Off-chip DRAM Size: 4096 MB Channels: 1 Width: 64-bit Data Rate: 3200 MT/s

CPU 0 runs /home/tapatil/CSE240C/SA1/ChampSim-master/ipc1_public/server_039.champsimtrace.xz
L1I D-JOLT instruction prefetcher has been constructed!
CPU 0 L1D next line prefetcher
Heartbeat CPU 0 instructions: 10000003 cycles: 3451535 heartbeat IPC: 2.89726 cumulative IPC: 2.89726 (Simulation time: 0 hr 0 min 34 sec) 
Heartbeat CPU 0 instructions: 20000002 cycles: 6896104 heartbeat IPC: 2.90312 cumulative IPC: 2.90019 (Simulation time: 0 hr 1 min 8 sec) 
Heartbeat CPU 0 instructions: 30000001 cycles: 10342477 heartbeat IPC: 2.9016 cumulative IPC: 2.90066 (Simulation time: 0 hr 1 min 43 sec) 
Heartbeat CPU 0 instructions: 40000002 cycles: 13784239 heartbeat IPC: 2.90549 cumulative IPC: 2.90187 (Simulation time: 0 hr 2 min 17 sec) 
Heartbeat CPU 0 instructions: 50000001 cycles: 17225358 heartbeat IPC: 2.90603 cumulative IPC: 2.9027 (Simulation time: 0 hr 2 min 53 sec) 

Warmup complete CPU 0 instructions: 50000001 cycles: 17225358 (Simulation time: 0 hr 2 min 53 sec) 

Heartbeat CPU 0 instructions: 60000000 cycles: 23002664 heartbeat IPC: 1.73091 cumulative IPC: 1.73091 (Simulation time: 0 hr 3 min 28 sec) 
Heartbeat CPU 0 instructions: 70000000 cycles: 28779691 heartbeat IPC: 1.73099 cumulative IPC: 1.73095 (Simulation time: 0 hr 4 min 4 sec) 
Heartbeat CPU 0 instructions: 80000000 cycles: 34556490 heartbeat IPC: 1.73106 cumulative IPC: 1.73099 (Simulation time: 0 hr 4 min 39 sec) 
Heartbeat CPU 0 instructions: 90000001 cycles: 40333233 heartbeat IPC: 1.73108 cumulative IPC: 1.73101 (Simulation time: 0 hr 5 min 15 sec) 
Heartbeat CPU 0 instructions: 100000002 cycles: 46117827 heartbeat IPC: 1.72873 cumulative IPC: 1.73055 (Simulation time: 0 hr 5 min 51 sec) 
Finished CPU 0 instructions: 50000001 cycles: 28892469 cumulative IPC: 1.73055 (Simulation time: 0 hr 5 min 51 sec) 

ChampSim completed all CPUs

Region of Interest Statistics

CPU 0 cumulative IPC: 1.73055 instructions: 50000001 cycles: 28892469
L1D TOTAL     ACCESS:   19879230  HIT:   19384518  MISS:     494712
L1D LOAD      ACCESS:    6488895  HIT:    6267285  MISS:     221610
L1D RFO       ACCESS:    7088942  HIT:    7022073  MISS:      66869
L1D PREFETCH  ACCESS:    6301393  HIT:    6095160  MISS:     206233
L1D WRITEBACK ACCESS:          0  HIT:          0  MISS:          0
L1D PREFETCH  REQUESTED:    6504914  ISSUED:    6371478  USEFUL:      50093  USELESS:     156144
L1D AVERAGE MISS LATENCY: 15.0813 cycles
L1I TOTAL     ACCESS:   19517151  HIT:   14363697  MISS:    5153454
L1I LOAD      ACCESS:    9364400  HIT:    9301679  MISS:      62721
L1I RFO       ACCESS:          0  HIT:          0  MISS:          0
L1I PREFETCH  ACCESS:   10152751  HIT:    5062018  MISS:    5090733
L1I WRITEBACK ACCESS:          0  HIT:          0  MISS:          0
L1I PREFETCH  REQUESTED:   10793114  ISSUED:   10474904  USEFUL:    4189405  USELESS:     901335
L1I AVERAGE MISS LATENCY: 14.6402 cycles
L2C TOTAL     ACCESS:    8100401  HIT:    8100265  MISS:        136
L2C LOAD      ACCESS:     270496  HIT:     270490  MISS:          6
L2C RFO       ACCESS:      66752  HIT:      66752  MISS:          0
L2C PREFETCH  ACCESS:    7583092  HIT:    7582965  MISS:        127
L2C WRITEBACK ACCESS:     180061  HIT:     180058  MISS:          3
L2C PREFETCH  REQUESTED:    5219757  ISSUED:    5218610  USEFUL:          1  USELESS:          5
L2C AVERAGE MISS LATENCY: 55.3676 cycles
LLC TOTAL     ACCESS:     787740  HIT:     787315  MISS:        425
LLC LOAD      ACCESS:          6  HIT:          5  MISS:          1
LLC RFO       ACCESS:          0  HIT:          0  MISS:          0
LLC PREFETCH  ACCESS:     787727  HIT:     787303  MISS:        424
LLC WRITEBACK ACCESS:          7  HIT:          7  MISS:          0
LLC PREFETCH  REQUESTED:          0  ISSUED:          0  USEFUL:          2  USELESS:          0
LLC AVERAGE MISS LATENCY: 169.925 cycles
Major fault: 0 Minor fault: 357
CPU 0 L1D next line prefetcher final stats

DRAM Statistics
 CHANNEL 0
 RQ ROW_BUFFER_HIT:         64  ROW_BUFFER_MISS:        361
 DBUS_CONGESTED:         45
 WQ ROW_BUFFER_HIT:          0  ROW_BUFFER_MISS:          0  FULL:          0

 AVG_CONGESTED_CYCLE: 5

CPU 0 Branch Prediction Accuracy: 99.9091% MPKI: 0.1547 Average ROB Occupancy at Mispredict: 309.002

Branch types
NOT_BRANCH: 41494970 82.9899%
BRANCH_DIRECT_JUMP: 491308 0.982616%
BRANCH_INDIRECT: 0 0%
BRANCH_CONDITIONAL: 5595255 11.1905%
BRANCH_DIRECT_CALL: 1028408 2.05682%
BRANCH_INDIRECT_CALL: 180756 0.361512%
BRANCH_RETURN: 1209170 2.41834%
BRANCH_OTHER: 0 0%

