Initialize SIGNATURE TABLE
ST_SET: 1
ST_WAY: 256
ST_TAG_BIT: 16
ST_TAG_MASK: ffff

Initialize PATTERN TABLE
PT_SET: 512
PT_WAY: 4
SIG_DELTA_BIT: 7
C_SIG_BIT: 4
C_DELTA_BIT: 4

Initialize PREFETCH FILTER
FILTER_SET: 1024

*** ChampSim Multicore Out-of-Order Simulator ***

Warmup Instructions: 50000000
Simulation Instructions: 50000000
Number of CPUs: 1
LLC sets: 2048
LLC ways: 16
Off-chip DRAM Size: 4096 MB Channels: 1 Width: 64-bit Data Rate: 3200 MT/s

CPU 0 runs /home/tapatil/CSE240C/SA1/ChampSim-master/ipc1_public/server_027.champsimtrace.xz
CPU 0 EPI prefetcher
CPU 0 L1D next line prefetcher
Heartbeat CPU 0 instructions: 10000001 cycles: 3524423 heartbeat IPC: 2.83734 cumulative IPC: 2.83734 (Simulation time: 0 hr 0 min 39 sec) 
Heartbeat CPU 0 instructions: 20000001 cycles: 7053924 heartbeat IPC: 2.83326 cumulative IPC: 2.8353 (Simulation time: 0 hr 1 min 18 sec) 
Heartbeat CPU 0 instructions: 30000002 cycles: 10577522 heartbeat IPC: 2.83801 cumulative IPC: 2.8362 (Simulation time: 0 hr 1 min 57 sec) 
Heartbeat CPU 0 instructions: 40000000 cycles: 14106611 heartbeat IPC: 2.83359 cumulative IPC: 2.83555 (Simulation time: 0 hr 2 min 36 sec) 
Heartbeat CPU 0 instructions: 50000001 cycles: 17628605 heartbeat IPC: 2.8393 cumulative IPC: 2.8363 (Simulation time: 0 hr 3 min 14 sec) 

Warmup complete CPU 0 instructions: 50000001 cycles: 17628605 (Simulation time: 0 hr 3 min 14 sec) 

Heartbeat CPU 0 instructions: 60000002 cycles: 24473811 heartbeat IPC: 1.46088 cumulative IPC: 1.46088 (Simulation time: 0 hr 3 min 55 sec) 
Heartbeat CPU 0 instructions: 70000003 cycles: 31256701 heartbeat IPC: 1.4743 cumulative IPC: 1.46756 (Simulation time: 0 hr 4 min 37 sec) 
Heartbeat CPU 0 instructions: 80000002 cycles: 38059532 heartbeat IPC: 1.46998 cumulative IPC: 1.46836 (Simulation time: 0 hr 5 min 18 sec) 
Heartbeat CPU 0 instructions: 90000001 cycles: 44927129 heartbeat IPC: 1.45611 cumulative IPC: 1.46528 (Simulation time: 0 hr 5 min 59 sec) 
Heartbeat CPU 0 instructions: 100000002 cycles: 51680409 heartbeat IPC: 1.48076 cumulative IPC: 1.46835 (Simulation time: 0 hr 6 min 40 sec) 
Finished CPU 0 instructions: 50000001 cycles: 34051804 cumulative IPC: 1.46835 (Simulation time: 0 hr 6 min 40 sec) 

ChampSim completed all CPUs

Region of Interest Statistics

CPU 0 cumulative IPC: 1.46835 instructions: 50000001 cycles: 34051804
L1D TOTAL     ACCESS:   19900109  HIT:   18298499  MISS:    1601610
L1D LOAD      ACCESS:    6948492  HIT:    6256772  MISS:     691720
L1D RFO       ACCESS:    6288758  HIT:    6002970  MISS:     285788
L1D PREFETCH  ACCESS:    6662859  HIT:    6038757  MISS:     624102
L1D WRITEBACK ACCESS:          0  HIT:          0  MISS:          0
L1D PREFETCH  REQUESTED:    6994239  ISSUED:    6867541  USEFUL:     149709  USELESS:     474405
L1D AVERAGE MISS LATENCY: 23.4329 cycles
L1I TOTAL     ACCESS:   27131081  HIT:   24022198  MISS:    3108883
L1I LOAD      ACCESS:    9417149  HIT:    9277804  MISS:     139345
L1I RFO       ACCESS:          0  HIT:          0  MISS:          0
L1I PREFETCH  ACCESS:   17713932  HIT:   14744394  MISS:    2969538
L1I WRITEBACK ACCESS:          0  HIT:          0  MISS:          0
L1I PREFETCH  REQUESTED:   22466382  ISSUED:   22466382  USEFUL:    2646287  USELESS:     323292
L1I AVERAGE MISS LATENCY: 19.4452 cycles
L2C TOTAL     ACCESS:    6419322  HIT:    5619066  MISS:     800256
L2C LOAD      ACCESS:     735174  HIT:     604590  MISS:     130584
L2C RFO       ACCESS:     283710  HIT:     197478  MISS:      86232
L2C PREFETCH  ACCESS:    4841131  HIT:    4261457  MISS:     579674
L2C WRITEBACK ACCESS:     559307  HIT:     555541  MISS:       3766
L2C PREFETCH  REQUESTED:    5147588  ISSUED:    5139834  USEFUL:      16737  USELESS:     562302
L2C AVERAGE MISS LATENCY: 38.5102 cycles
LLC TOTAL     ACCESS:    2358706  HIT:    2323925  MISS:      34781
LLC LOAD      ACCESS:     130344  HIT:     126749  MISS:       3595
LLC RFO       ACCESS:      86232  HIT:      72357  MISS:      13875
LLC PREFETCH  ACCESS:    2000107  HIT:    1982988  MISS:      17119
LLC WRITEBACK ACCESS:     142023  HIT:     141831  MISS:        192
LLC PREFETCH  REQUESTED:          0  ISSUED:          0  USEFUL:       1378  USELESS:      15160
LLC AVERAGE MISS LATENCY: 181.509 cycles
Major fault: 0 Minor fault: 2478
CPU 0 L1I EPI prefetcher final stats
CPU 0 L1D next line prefetcher final stats

DRAM Statistics
 CHANNEL 0
 RQ ROW_BUFFER_HIT:      11379  ROW_BUFFER_MISS:      23205
 DBUS_CONGESTED:      23288
 WQ ROW_BUFFER_HIT:       1590  ROW_BUFFER_MISS:      14607  FULL:          0

 AVG_CONGESTED_CYCLE: 6

CPU 0 Branch Prediction Accuracy: 99.8082% MPKI: 0.35064 Average ROB Occupancy at Mispredict: 190.978

Branch types
NOT_BRANCH: 40857495 81.715%
BRANCH_DIRECT_JUMP: 526635 1.05327%
BRANCH_INDIRECT: 205902 0.411804%
BRANCH_CONDITIONAL: 6184049 12.3681%
BRANCH_DIRECT_CALL: 938467 1.87693%
BRANCH_INDIRECT_CALL: 174486 0.348972%
BRANCH_RETURN: 1112959 2.22592%
BRANCH_OTHER: 0 0%

