Initialize SIGNATURE TABLE
ST_SET: 1
ST_WAY: 256
ST_TAG_BIT: 16
ST_TAG_MASK: ffff

Initialize PATTERN TABLE
PT_SET: 512
PT_WAY: 4
SIG_DELTA_BIT: 7
C_SIG_BIT: 4
C_DELTA_BIT: 4

Initialize PREFETCH FILTER
FILTER_SET: 1024

*** ChampSim Multicore Out-of-Order Simulator ***

Warmup Instructions: 50000000
Simulation Instructions: 50000000
Number of CPUs: 1
LLC sets: 2048
LLC ways: 16
Off-chip DRAM Size: 4096 MB Channels: 1 Width: 64-bit Data Rate: 3200 MT/s

CPU 0 runs /home/tapatil/CSE240C/SA1/ChampSim-master/ipc1_public/server_010.champsimtrace.xz
CPU 0 EPI prefetcher
CPU 0 L1D next line prefetcher
Heartbeat CPU 0 instructions: 10000000 cycles: 3198323 heartbeat IPC: 3.12664 cumulative IPC: 3.12664 (Simulation time: 0 hr 0 min 38 sec) 
Heartbeat CPU 0 instructions: 20000002 cycles: 6392724 heartbeat IPC: 3.13048 cumulative IPC: 3.12856 (Simulation time: 0 hr 1 min 16 sec) 
Heartbeat CPU 0 instructions: 30000001 cycles: 9589788 heartbeat IPC: 3.12787 cumulative IPC: 3.12833 (Simulation time: 0 hr 1 min 54 sec) 
Heartbeat CPU 0 instructions: 40000000 cycles: 12783450 heartbeat IPC: 3.1312 cumulative IPC: 3.12905 (Simulation time: 0 hr 2 min 32 sec) 
Heartbeat CPU 0 instructions: 50000003 cycles: 15982112 heartbeat IPC: 3.12631 cumulative IPC: 3.1285 (Simulation time: 0 hr 3 min 10 sec) 

Warmup complete CPU 0 instructions: 50000003 cycles: 15982112 (Simulation time: 0 hr 3 min 10 sec) 

Heartbeat CPU 0 instructions: 60000001 cycles: 23160839 heartbeat IPC: 1.393 cumulative IPC: 1.393 (Simulation time: 0 hr 3 min 47 sec) 
Heartbeat CPU 0 instructions: 70000000 cycles: 30372940 heartbeat IPC: 1.38656 cumulative IPC: 1.38977 (Simulation time: 0 hr 4 min 24 sec) 
Heartbeat CPU 0 instructions: 80000003 cycles: 37624480 heartbeat IPC: 1.37902 cumulative IPC: 1.38617 (Simulation time: 0 hr 5 min 1 sec) 
Heartbeat CPU 0 instructions: 90000002 cycles: 44635133 heartbeat IPC: 1.4264 cumulative IPC: 1.39601 (Simulation time: 0 hr 5 min 38 sec) 
Heartbeat CPU 0 instructions: 100000003 cycles: 65222757 heartbeat IPC: 0.485729 cumulative IPC: 1.01542 (Simulation time: 0 hr 6 min 39 sec) 
Finished CPU 0 instructions: 50000000 cycles: 49240645 cumulative IPC: 1.01542 (Simulation time: 0 hr 6 min 39 sec) 

ChampSim completed all CPUs

Region of Interest Statistics

CPU 0 cumulative IPC: 1.01542 instructions: 50000000 cycles: 49240645
L1D TOTAL     ACCESS:   19874295  HIT:   16649179  MISS:    3225116
L1D LOAD      ACCESS:    7692540  HIT:    6100193  MISS:    1592347
L1D RFO       ACCESS:    4710588  HIT:    4616332  MISS:      94256
L1D PREFETCH  ACCESS:    7471167  HIT:    5932654  MISS:    1538513
L1D WRITEBACK ACCESS:          0  HIT:          0  MISS:          0
L1D PREFETCH  REQUESTED:    7724870  ISSUED:    7628245  USEFUL:     117995  USELESS:    1420489
L1D AVERAGE MISS LATENCY: 22.7018 cycles
L1I TOTAL     ACCESS:   38402755  HIT:   36818627  MISS:    1584128
L1I LOAD      ACCESS:    9964037  HIT:    9908161  MISS:      55876
L1I RFO       ACCESS:          0  HIT:          0  MISS:          0
L1I PREFETCH  ACCESS:   28438718  HIT:   26910466  MISS:    1528252
L1I WRITEBACK ACCESS:          0  HIT:          0  MISS:          0
L1I PREFETCH  REQUESTED:   39128917  ISSUED:   39128917  USEFUL:    1151063  USELESS:     377177
L1I AVERAGE MISS LATENCY: 33.3054 cycles
L2C TOTAL     ACCESS:    6150100  HIT:    5018090  MISS:    1132010
L2C LOAD      ACCESS:    1604142  HIT:    1374549  MISS:     229593
L2C RFO       ACCESS:      93249  HIT:      49039  MISS:      44210
L2C PREFETCH  ACCESS:    4187362  HIT:    3330126  MISS:     857236
L2C WRITEBACK ACCESS:     265347  HIT:     264376  MISS:        971
L2C PREFETCH  REQUESTED:    6036585  ISSUED:    6028937  USEFUL:      24428  USELESS:     833465
L2C AVERAGE MISS LATENCY: 47.1556 cycles
LLC TOTAL     ACCESS:    2397307  HIT:    2263695  MISS:     133612
LLC LOAD      ACCESS:     227683  HIT:     210762  MISS:      16921
LLC RFO       ACCESS:      44200  HIT:      35714  MISS:       8486
LLC PREFETCH  ACCESS:    1976602  HIT:    1868751  MISS:     107851
LLC WRITEBACK ACCESS:     148822  HIT:     148468  MISS:        354
LLC PREFETCH  REQUESTED:          0  ISSUED:          0  USEFUL:       9186  USELESS:      98762
LLC AVERAGE MISS LATENCY: 177.481 cycles
Major fault: 0 Minor fault: 5604
CPU 0 L1I EPI prefetcher final stats
CPU 0 L1D next line prefetcher final stats

DRAM Statistics
 CHANNEL 0
 RQ ROW_BUFFER_HIT:      21241  ROW_BUFFER_MISS:     112004
 DBUS_CONGESTED:      63618
 WQ ROW_BUFFER_HIT:      10260  ROW_BUFFER_MISS:      43568  FULL:          0

 AVG_CONGESTED_CYCLE: 5

CPU 0 Branch Prediction Accuracy: 99.5528% MPKI: 0.89798 Average ROB Occupancy at Mispredict: 131.798

Branch types
NOT_BRANCH: 39958794 79.9176%
BRANCH_DIRECT_JUMP: 449946 0.899892%
BRANCH_INDIRECT: 140210 0.28042%
BRANCH_CONDITIONAL: 7679677 15.3594%
BRANCH_DIRECT_CALL: 701578 1.40316%
BRANCH_INDIRECT_CALL: 168971 0.337942%
BRANCH_RETURN: 900560 1.80112%
BRANCH_OTHER: 0 0%

