Initialize SIGNATURE TABLE
ST_SET: 1
ST_WAY: 256
ST_TAG_BIT: 16
ST_TAG_MASK: ffff

Initialize PATTERN TABLE
PT_SET: 512
PT_WAY: 4
SIG_DELTA_BIT: 7
C_SIG_BIT: 4
C_DELTA_BIT: 4

Initialize PREFETCH FILTER
FILTER_SET: 1024

*** ChampSim Multicore Out-of-Order Simulator ***

Warmup Instructions: 50000000
Simulation Instructions: 50000000
Number of CPUs: 1
LLC sets: 2048
LLC ways: 16
Off-chip DRAM Size: 4096 MB Channels: 1 Width: 64-bit Data Rate: 3200 MT/s

CPU 0 runs /home/tapatil/CSE240C/SA1/ChampSim-master/ipc1_public/server_031.champsimtrace.xz
L1I D-JOLT instruction prefetcher has been constructed!
CPU 0 L1D next line prefetcher
Heartbeat CPU 0 instructions: 10000003 cycles: 3521929 heartbeat IPC: 2.83935 cumulative IPC: 2.83935 (Simulation time: 0 hr 0 min 34 sec) 
Heartbeat CPU 0 instructions: 20000002 cycles: 7042336 heartbeat IPC: 2.84058 cumulative IPC: 2.83997 (Simulation time: 0 hr 1 min 8 sec) 
Heartbeat CPU 0 instructions: 30000002 cycles: 10563842 heartbeat IPC: 2.83969 cumulative IPC: 2.83988 (Simulation time: 0 hr 1 min 43 sec) 
Heartbeat CPU 0 instructions: 40000003 cycles: 14079729 heartbeat IPC: 2.84423 cumulative IPC: 2.84096 (Simulation time: 0 hr 2 min 17 sec) 
Heartbeat CPU 0 instructions: 50000001 cycles: 17598556 heartbeat IPC: 2.84186 cumulative IPC: 2.84114 (Simulation time: 0 hr 2 min 51 sec) 

Warmup complete CPU 0 instructions: 50000001 cycles: 17598556 (Simulation time: 0 hr 2 min 51 sec) 

Heartbeat CPU 0 instructions: 60000001 cycles: 25085857 heartbeat IPC: 1.33559 cumulative IPC: 1.33559 (Simulation time: 0 hr 3 min 28 sec) 
Heartbeat CPU 0 instructions: 70000002 cycles: 32644865 heartbeat IPC: 1.32293 cumulative IPC: 1.32923 (Simulation time: 0 hr 4 min 5 sec) 
*** Reached end of trace for Core: 0 Repeating trace: /home/tapatil/CSE240C/SA1/ChampSim-master/ipc1_public/server_031.champsimtrace.xz
Heartbeat CPU 0 instructions: 80000000 cycles: 40048352 heartbeat IPC: 1.35071 cumulative IPC: 1.33632 (Simulation time: 0 hr 4 min 42 sec) 
Heartbeat CPU 0 instructions: 90000003 cycles: 47494803 heartbeat IPC: 1.34292 cumulative IPC: 1.33796 (Simulation time: 0 hr 5 min 20 sec) 
Heartbeat CPU 0 instructions: 100000000 cycles: 54905230 heartbeat IPC: 1.34945 cumulative IPC: 1.34024 (Simulation time: 0 hr 5 min 56 sec) 
Finished CPU 0 instructions: 50000000 cycles: 37306676 cumulative IPC: 1.34024 (Simulation time: 0 hr 5 min 56 sec) 

ChampSim completed all CPUs

Region of Interest Statistics

CPU 0 cumulative IPC: 1.34024 instructions: 50000000 cycles: 37306676
L1D TOTAL     ACCESS:   19505747  HIT:   17601363  MISS:    1904384
L1D LOAD      ACCESS:    6760077  HIT:    5886851  MISS:     873226
L1D RFO       ACCESS:    6326783  HIT:    6035605  MISS:     291178
L1D PREFETCH  ACCESS:    6418887  HIT:    5678907  MISS:     739980
L1D WRITEBACK ACCESS:          0  HIT:          0  MISS:          0
L1D PREFETCH  REQUESTED:    6821331  ISSUED:    6707334  USEFUL:     174200  USELESS:     565785
L1D AVERAGE MISS LATENCY: 22.893 cycles
L1I TOTAL     ACCESS:   17338143  HIT:   13757517  MISS:    3580626
L1I LOAD      ACCESS:    9731705  HIT:    9690088  MISS:      41617
L1I RFO       ACCESS:          0  HIT:          0  MISS:          0
L1I PREFETCH  ACCESS:    7606438  HIT:    4067429  MISS:    3539009
L1I WRITEBACK ACCESS:          0  HIT:          0  MISS:          0
L1I PREFETCH  REQUESTED:    8151009  ISSUED:    8014220  USEFUL:    3018810  USELESS:     520210
L1I AVERAGE MISS LATENCY: 17.9799 cycles
L2C TOTAL     ACCESS:    7869861  HIT:    7227072  MISS:     642789
L2C LOAD      ACCESS:     862103  HIT:     728872  MISS:     133231
L2C RFO       ACCESS:     289117  HIT:     243942  MISS:      45175
L2C PREFETCH  ACCESS:    6101702  HIT:    5639317  MISS:     462385
L2C WRITEBACK ACCESS:     616939  HIT:     614941  MISS:       1998
L2C PREFETCH  REQUESTED:    5823852  ISSUED:    5796502  USEFUL:       4941  USELESS:     456868
L2C AVERAGE MISS LATENCY: 44.2409 cycles
LLC TOTAL     ACCESS:    2669075  HIT:    2578359  MISS:      90716
LLC LOAD      ACCESS:     133184  HIT:     113968  MISS:      19216
LLC RFO       ACCESS:      45132  HIT:      40931  MISS:       4201
LLC PREFETCH  ACCESS:    2402850  HIT:    2336234  MISS:      66616
LLC WRITEBACK ACCESS:      87909  HIT:      87226  MISS:        683
LLC PREFETCH  REQUESTED:          0  ISSUED:          0  USEFUL:       2799  USELESS:      63451
LLC AVERAGE MISS LATENCY: 163.823 cycles
Major fault: 0 Minor fault: 6047
CPU 0 L1D next line prefetcher final stats

DRAM Statistics
 CHANNEL 0
 RQ ROW_BUFFER_HIT:      25712  ROW_BUFFER_MISS:      64319
 DBUS_CONGESTED:      36261
 WQ ROW_BUFFER_HIT:        858  ROW_BUFFER_MISS:       5245  FULL:          0

 AVG_CONGESTED_CYCLE: 5

CPU 0 Branch Prediction Accuracy: 99.6894% MPKI: 0.58048 Average ROB Occupancy at Mispredict: 141.329

Branch types
NOT_BRANCH: 40655724 81.3114%
BRANCH_DIRECT_JUMP: 546483 1.09297%
BRANCH_INDIRECT: 172433 0.344866%
BRANCH_CONDITIONAL: 6207601 12.4152%
BRANCH_DIRECT_CALL: 1018499 2.037%
BRANCH_INDIRECT_CALL: 190373 0.380746%
BRANCH_RETURN: 1208856 2.41771%
BRANCH_OTHER: 0 0%

