Initialize SIGNATURE TABLE
ST_SET: 1
ST_WAY: 256
ST_TAG_BIT: 16
ST_TAG_MASK: ffff

Initialize PATTERN TABLE
PT_SET: 512
PT_WAY: 4
SIG_DELTA_BIT: 7
C_SIG_BIT: 4
C_DELTA_BIT: 4

Initialize PREFETCH FILTER
FILTER_SET: 1024

*** ChampSim Multicore Out-of-Order Simulator ***

Warmup Instructions: 50000000
Simulation Instructions: 50000000
Number of CPUs: 1
LLC sets: 2048
LLC ways: 16
Off-chip DRAM Size: 4096 MB Channels: 1 Width: 64-bit Data Rate: 3200 MT/s

CPU 0 runs /home/tapatil/CSE240C/SA1/ChampSim-master/ipc1_public/server_029.champsimtrace.xz
CPU 0 EPI prefetcher
CPU 0 L1D next line prefetcher
Heartbeat CPU 0 instructions: 10000001 cycles: 3488411 heartbeat IPC: 2.86664 cumulative IPC: 2.86664 (Simulation time: 0 hr 0 min 40 sec) 
Heartbeat CPU 0 instructions: 20000002 cycles: 6976797 heartbeat IPC: 2.86666 cumulative IPC: 2.86665 (Simulation time: 0 hr 1 min 19 sec) 
Heartbeat CPU 0 instructions: 30000003 cycles: 10466069 heartbeat IPC: 2.86593 cumulative IPC: 2.86641 (Simulation time: 0 hr 2 min 0 sec) 
Heartbeat CPU 0 instructions: 40000000 cycles: 13962453 heartbeat IPC: 2.8601 cumulative IPC: 2.86483 (Simulation time: 0 hr 2 min 40 sec) 
Heartbeat CPU 0 instructions: 50000000 cycles: 17457100 heartbeat IPC: 2.86152 cumulative IPC: 2.86416 (Simulation time: 0 hr 3 min 19 sec) 

Warmup complete CPU 0 instructions: 50000004 cycles: 17457101 (Simulation time: 0 hr 3 min 19 sec) 

Heartbeat CPU 0 instructions: 60000000 cycles: 24933644 heartbeat IPC: 1.33752 cumulative IPC: 1.33752 (Simulation time: 0 hr 4 min 2 sec) 
Heartbeat CPU 0 instructions: 70000003 cycles: 32571744 heartbeat IPC: 1.30923 cumulative IPC: 1.32322 (Simulation time: 0 hr 4 min 45 sec) 
Heartbeat CPU 0 instructions: 80000002 cycles: 40040404 heartbeat IPC: 1.33893 cumulative IPC: 1.32842 (Simulation time: 0 hr 5 min 27 sec) 
*** Reached end of trace for Core: 0 Repeating trace: /home/tapatil/CSE240C/SA1/ChampSim-master/ipc1_public/server_029.champsimtrace.xz
Heartbeat CPU 0 instructions: 90000000 cycles: 47412305 heartbeat IPC: 1.3565 cumulative IPC: 1.33533 (Simulation time: 0 hr 6 min 9 sec) 
Heartbeat CPU 0 instructions: 100000003 cycles: 54789628 heartbeat IPC: 1.35551 cumulative IPC: 1.33931 (Simulation time: 0 hr 6 min 52 sec) 
Finished CPU 0 instructions: 50000003 cycles: 37332528 cumulative IPC: 1.33931 (Simulation time: 0 hr 6 min 52 sec) 

ChampSim completed all CPUs

Region of Interest Statistics

CPU 0 cumulative IPC: 1.33931 instructions: 50000003 cycles: 37332528
L1D TOTAL     ACCESS:   19063141  HIT:   16966892  MISS:    2096249
L1D LOAD      ACCESS:    6733370  HIT:    5667313  MISS:    1066057
L1D RFO       ACCESS:    6113820  HIT:    5828342  MISS:     285478
L1D PREFETCH  ACCESS:    6215951  HIT:    5471237  MISS:     744714
L1D WRITEBACK ACCESS:          0  HIT:          0  MISS:          0
L1D PREFETCH  REQUESTED:    6794152  ISSUED:    6687041  USEFUL:     174738  USELESS:     569966
L1D AVERAGE MISS LATENCY: 20.9938 cycles
L1I TOTAL     ACCESS:   27449601  HIT:   24212696  MISS:    3236905
L1I LOAD      ACCESS:    9754260  HIT:    9640240  MISS:     114020
L1I RFO       ACCESS:          0  HIT:          0  MISS:          0
L1I PREFETCH  ACCESS:   17695341  HIT:   14572456  MISS:    3122885
L1I WRITEBACK ACCESS:          0  HIT:          0  MISS:          0
L1I PREFETCH  REQUESTED:   22236972  ISSUED:   22236972  USEFUL:    2817397  USELESS:     305508
L1I AVERAGE MISS LATENCY: 18.2435 cycles
L2C TOTAL     ACCESS:    7496970  HIT:    6858860  MISS:     638110
L2C LOAD      ACCESS:     974848  HIT:     843826  MISS:     131022
L2C RFO       ACCESS:     283540  HIT:     237948  MISS:      45592
L2C PREFETCH  ACCESS:    5628091  HIT:    5167437  MISS:     460654
L2C WRITEBACK ACCESS:     610491  HIT:     609649  MISS:        842
L2C PREFETCH  REQUESTED:    6677756  ISSUED:    6657498  USEFUL:      13201  USELESS:     446723
L2C AVERAGE MISS LATENCY: 43.5828 cycles
LLC TOTAL     ACCESS:    2428887  HIT:    2352355  MISS:      76532
LLC LOAD      ACCESS:     130927  HIT:     113963  MISS:      16964
LLC RFO       ACCESS:      45583  HIT:      41920  MISS:       3663
LLC PREFETCH  ACCESS:    2157559  HIT:    2102298  MISS:      55261
LLC WRITEBACK ACCESS:      94818  HIT:      94174  MISS:        644
LLC PREFETCH  REQUESTED:          0  ISSUED:          0  USEFUL:       2544  USELESS:      52953
LLC AVERAGE MISS LATENCY: 158.375 cycles
Major fault: 0 Minor fault: 5919
CPU 0 L1I EPI prefetcher final stats
CPU 0 L1D next line prefetcher final stats

DRAM Statistics
 CHANNEL 0
 RQ ROW_BUFFER_HIT:      21468  ROW_BUFFER_MISS:      54397
 DBUS_CONGESTED:      31152
 WQ ROW_BUFFER_HIT:        557  ROW_BUFFER_MISS:       4137  FULL:          0

 AVG_CONGESTED_CYCLE: 5

CPU 0 Branch Prediction Accuracy: 99.7245% MPKI: 0.51862 Average ROB Occupancy at Mispredict: 146.378

Branch types
NOT_BRANCH: 40586633 81.1733%
BRANCH_DIRECT_JUMP: 525212 1.05042%
BRANCH_INDIRECT: 166359 0.332718%
BRANCH_CONDITIONAL: 6373092 12.7462%
BRANCH_DIRECT_CALL: 989263 1.97853%
BRANCH_INDIRECT_CALL: 184984 0.369968%
BRANCH_RETURN: 1174251 2.3485%
BRANCH_OTHER: 0 0%

