Initialize SIGNATURE TABLE
ST_SET: 1
ST_WAY: 256
ST_TAG_BIT: 16
ST_TAG_MASK: ffff

Initialize PATTERN TABLE
PT_SET: 512
PT_WAY: 4
SIG_DELTA_BIT: 7
C_SIG_BIT: 4
C_DELTA_BIT: 4

Initialize PREFETCH FILTER
FILTER_SET: 1024

*** ChampSim Multicore Out-of-Order Simulator ***

Warmup Instructions: 50000000
Simulation Instructions: 50000000
Number of CPUs: 1
LLC sets: 2048
LLC ways: 16
Off-chip DRAM Size: 4096 MB Channels: 1 Width: 64-bit Data Rate: 3200 MT/s

CPU 0 runs /home/tapatil/CSE240C/SA1/ChampSim-master/ipc1_public/server_023.champsimtrace.xz
CPU 0 EPI prefetcher
CPU 0 L1D next line prefetcher
Heartbeat CPU 0 instructions: 10000001 cycles: 3496807 heartbeat IPC: 2.85975 cumulative IPC: 2.85975 (Simulation time: 0 hr 0 min 39 sec) 
Heartbeat CPU 0 instructions: 20000000 cycles: 6993140 heartbeat IPC: 2.86014 cumulative IPC: 2.85995 (Simulation time: 0 hr 1 min 17 sec) 
Heartbeat CPU 0 instructions: 30000001 cycles: 10483882 heartbeat IPC: 2.86472 cumulative IPC: 2.86154 (Simulation time: 0 hr 1 min 56 sec) 
Heartbeat CPU 0 instructions: 40000003 cycles: 13980082 heartbeat IPC: 2.86025 cumulative IPC: 2.86121 (Simulation time: 0 hr 2 min 35 sec) 
Heartbeat CPU 0 instructions: 50000001 cycles: 17478011 heartbeat IPC: 2.85883 cumulative IPC: 2.86074 (Simulation time: 0 hr 3 min 14 sec) 

Warmup complete CPU 0 instructions: 50000001 cycles: 17478011 (Simulation time: 0 hr 3 min 14 sec) 

Heartbeat CPU 0 instructions: 60000002 cycles: 24194135 heartbeat IPC: 1.48895 cumulative IPC: 1.48895 (Simulation time: 0 hr 3 min 54 sec) 
Heartbeat CPU 0 instructions: 70000002 cycles: 31122283 heartbeat IPC: 1.44339 cumulative IPC: 1.46582 (Simulation time: 0 hr 4 min 34 sec) 
Heartbeat CPU 0 instructions: 80000000 cycles: 37944664 heartbeat IPC: 1.46576 cumulative IPC: 1.4658 (Simulation time: 0 hr 5 min 15 sec) 
Heartbeat CPU 0 instructions: 90000000 cycles: 44828014 heartbeat IPC: 1.45278 cumulative IPC: 1.46252 (Simulation time: 0 hr 5 min 52 sec) 
Heartbeat CPU 0 instructions: 100000001 cycles: 51634753 heartbeat IPC: 1.46913 cumulative IPC: 1.46384 (Simulation time: 0 hr 6 min 32 sec) 
Finished CPU 0 instructions: 50000000 cycles: 34156742 cumulative IPC: 1.46384 (Simulation time: 0 hr 6 min 32 sec) 

ChampSim completed all CPUs

Region of Interest Statistics

CPU 0 cumulative IPC: 1.46384 instructions: 50000000 cycles: 34156742
L1D TOTAL     ACCESS:   19357348  HIT:   17890494  MISS:    1466854
L1D LOAD      ACCESS:    6848568  HIT:    6187241  MISS:     661327
L1D RFO       ACCESS:    5982261  HIT:    5720869  MISS:     261392
L1D PREFETCH  ACCESS:    6526519  HIT:    5982384  MISS:     544135
L1D WRITEBACK ACCESS:          0  HIT:          0  MISS:          0
L1D PREFETCH  REQUESTED:    6898744  ISSUED:    6777472  USEFUL:     129506  USELESS:     414638
L1D AVERAGE MISS LATENCY: 24.2532 cycles
L1I TOTAL     ACCESS:   28122623  HIT:   25426499  MISS:    2696124
L1I LOAD      ACCESS:    9398403  HIT:    9291014  MISS:     107389
L1I RFO       ACCESS:          0  HIT:          0  MISS:          0
L1I PREFETCH  ACCESS:   18724220  HIT:   16135485  MISS:    2588735
L1I WRITEBACK ACCESS:          0  HIT:          0  MISS:          0
L1I PREFETCH  REQUESTED:   25190441  ISSUED:   25190441  USEFUL:    2316305  USELESS:     272417
L1I AVERAGE MISS LATENCY: 19.1154 cycles
L2C TOTAL     ACCESS:    5770148  HIT:    5104379  MISS:     665769
L2C LOAD      ACCESS:     659123  HIT:     541567  MISS:     117556
L2C RFO       ACCESS:     259362  HIT:     170539  MISS:      88823
L2C PREFETCH  ACCESS:    4352395  HIT:    3894741  MISS:     457654
L2C WRITEBACK ACCESS:     499268  HIT:     497532  MISS:       1736
L2C PREFETCH  REQUESTED:    5100232  ISSUED:    5090389  USEFUL:      15963  USELESS:     441528
L2C AVERAGE MISS LATENCY: 42.8344 cycles
LLC TOTAL     ACCESS:    2187975  HIT:    2132763  MISS:      55212
LLC LOAD      ACCESS:     117308  HIT:     110705  MISS:       6603
LLC RFO       ACCESS:      88807  HIT:      70956  MISS:      17851
LLC PREFETCH  ACCESS:    1845132  HIT:    1814695  MISS:      30437
LLC WRITEBACK ACCESS:     136728  HIT:     136407  MISS:        321
LLC PREFETCH  REQUESTED:          0  ISSUED:          0  USEFUL:       2561  USELESS:      27130
LLC AVERAGE MISS LATENCY: 182.224 cycles
Major fault: 0 Minor fault: 2768
CPU 0 L1I EPI prefetcher final stats
CPU 0 L1D next line prefetcher final stats

DRAM Statistics
 CHANNEL 0
 RQ ROW_BUFFER_HIT:      15891  ROW_BUFFER_MISS:      38991
 DBUS_CONGESTED:      33127
 WQ ROW_BUFFER_HIT:       2589  ROW_BUFFER_MISS:      19500  FULL:          0

 AVG_CONGESTED_CYCLE: 6

CPU 0 Branch Prediction Accuracy: 99.6798% MPKI: 0.58608 Average ROB Occupancy at Mispredict: 147.61

Branch types
NOT_BRANCH: 40848323 81.6966%
BRANCH_DIRECT_JUMP: 548372 1.09674%
BRANCH_INDIRECT: 189802 0.379604%
BRANCH_CONDITIONAL: 6372772 12.7455%
BRANCH_DIRECT_CALL: 862207 1.72441%
BRANCH_INDIRECT_CALL: 158149 0.316298%
BRANCH_RETURN: 1020345 2.04069%
BRANCH_OTHER: 0 0%

