Initialize SIGNATURE TABLE
ST_SET: 1
ST_WAY: 256
ST_TAG_BIT: 16
ST_TAG_MASK: ffff

Initialize PATTERN TABLE
PT_SET: 512
PT_WAY: 4
SIG_DELTA_BIT: 7
C_SIG_BIT: 4
C_DELTA_BIT: 4

Initialize PREFETCH FILTER
FILTER_SET: 1024

*** ChampSim Multicore Out-of-Order Simulator ***

Warmup Instructions: 50000000
Simulation Instructions: 50000000
Number of CPUs: 1
LLC sets: 2048
LLC ways: 16
Off-chip DRAM Size: 4096 MB Channels: 1 Width: 64-bit Data Rate: 3200 MT/s

CPU 0 runs /home/tapatil/CSE240C/SA1/ChampSim-master/ipc1_public/server_022.champsimtrace.xz
L1I D-JOLT instruction prefetcher has been constructed!
CPU 0 L1D next line prefetcher
Heartbeat CPU 0 instructions: 10000002 cycles: 3623663 heartbeat IPC: 2.75964 cumulative IPC: 2.75964 (Simulation time: 0 hr 0 min 34 sec) 
Heartbeat CPU 0 instructions: 20000001 cycles: 7253942 heartbeat IPC: 2.75461 cumulative IPC: 2.75712 (Simulation time: 0 hr 1 min 8 sec) 
Heartbeat CPU 0 instructions: 30000003 cycles: 10877671 heartbeat IPC: 2.75959 cumulative IPC: 2.75794 (Simulation time: 0 hr 1 min 43 sec) 
Heartbeat CPU 0 instructions: 40000003 cycles: 14509031 heartbeat IPC: 2.75379 cumulative IPC: 2.7569 (Simulation time: 0 hr 2 min 18 sec) 
Heartbeat CPU 0 instructions: 50000002 cycles: 18130218 heartbeat IPC: 2.76153 cumulative IPC: 2.75783 (Simulation time: 0 hr 2 min 54 sec) 

Warmup complete CPU 0 instructions: 50000002 cycles: 18130218 (Simulation time: 0 hr 2 min 54 sec) 

Heartbeat CPU 0 instructions: 60000000 cycles: 34950133 heartbeat IPC: 0.594533 cumulative IPC: 0.594533 (Simulation time: 0 hr 3 min 42 sec) 
Heartbeat CPU 0 instructions: 70000001 cycles: 51770474 heartbeat IPC: 0.594518 cumulative IPC: 0.594526 (Simulation time: 0 hr 4 min 31 sec) 
Heartbeat CPU 0 instructions: 80000001 cycles: 68331149 heartbeat IPC: 0.60384 cumulative IPC: 0.597598 (Simulation time: 0 hr 5 min 20 sec) 
Heartbeat CPU 0 instructions: 90000003 cycles: 85161296 heartbeat IPC: 0.594172 cumulative IPC: 0.596738 (Simulation time: 0 hr 6 min 11 sec) 
Heartbeat CPU 0 instructions: 100000003 cycles: 101818417 heartbeat IPC: 0.600344 cumulative IPC: 0.597456 (Simulation time: 0 hr 7 min 0 sec) 
Finished CPU 0 instructions: 50000001 cycles: 83688199 cumulative IPC: 0.597456 (Simulation time: 0 hr 7 min 0 sec) 

ChampSim completed all CPUs

Region of Interest Statistics

CPU 0 cumulative IPC: 0.597456 instructions: 50000001 cycles: 83688199
L1D TOTAL     ACCESS:   18688140  HIT:   16477494  MISS:    2210646
L1D LOAD      ACCESS:    7051233  HIT:    6346601  MISS:     704632
L1D RFO       ACCESS:    5886571  HIT:    4907122  MISS:     979449
L1D PREFETCH  ACCESS:    5750336  HIT:    5223771  MISS:     526565
L1D WRITEBACK ACCESS:          0  HIT:          0  MISS:          0
L1D PREFETCH  REQUESTED:    7093146  ISSUED:    6885162  USEFUL:     205457  USELESS:     321113
L1D AVERAGE MISS LATENCY: 181.715 cycles
L1I TOTAL     ACCESS:   18993460  HIT:   15427199  MISS:    3566261
L1I LOAD      ACCESS:   10176775  HIT:   10137050  MISS:      39725
L1I RFO       ACCESS:          0  HIT:          0  MISS:          0
L1I PREFETCH  ACCESS:    8816685  HIT:    5290149  MISS:    3526536
L1I WRITEBACK ACCESS:          0  HIT:          0  MISS:          0
L1I PREFETCH  REQUESTED:    9500376  ISSUED:    9424685  USEFUL:    2811274  USELESS:     715268
L1I AVERAGE MISS LATENCY: 17.4427 cycles
L2C TOTAL     ACCESS:    8491958  HIT:    6625051  MISS:    1866907
L2C LOAD      ACCESS:     509719  HIT:     263811  MISS:     245908
L2C RFO       ACCESS:     978983  HIT:      20608  MISS:     958375
L2C PREFETCH  ACCESS:    5818085  HIT:    5158267  MISS:     659818
L2C WRITEBACK ACCESS:    1185171  HIT:    1182365  MISS:       2806
L2C PREFETCH  REQUESTED:    5233938  ISSUED:    5226720  USEFUL:      19221  USELESS:     640681
L2C AVERAGE MISS LATENCY: 220.75 cycles
LLC TOTAL     ACCESS:    4321547  HIT:    2913496  MISS:    1408051
LLC LOAD      ACCESS:     245836  HIT:     172503  MISS:      73333
LLC RFO       ACCESS:     958357  HIT:     140809  MISS:     817548
LLC PREFETCH  ACCESS:    1999287  HIT:    1484138  MISS:     515149
LLC WRITEBACK ACCESS:    1118067  HIT:    1116046  MISS:       2021
LLC PREFETCH  REQUESTED:          0  ISSUED:          0  USEFUL:      28576  USELESS:     486900
LLC AVERAGE MISS LATENCY: 297.587 cycles
Major fault: 0 Minor fault: 23509
CPU 0 L1D next line prefetcher final stats

DRAM Statistics
 CHANNEL 0
 RQ ROW_BUFFER_HIT:     404656  ROW_BUFFER_MISS:    1001041
 DBUS_CONGESTED:    1453670
 WQ ROW_BUFFER_HIT:     257145  ROW_BUFFER_MISS:     644918  FULL:          0

 AVG_CONGESTED_CYCLE: 6

CPU 0 Branch Prediction Accuracy: 99.8317% MPKI: 0.27564 Average ROB Occupancy at Mispredict: 222.767

Branch types
NOT_BRANCH: 41811153 83.6223%
BRANCH_DIRECT_JUMP: 445742 0.891484%
BRANCH_INDIRECT: 48876 0.097752%
BRANCH_CONDITIONAL: 5859408 11.7188%
BRANCH_DIRECT_CALL: 758268 1.51654%
BRANCH_INDIRECT_CALL: 159103 0.318206%
BRANCH_RETURN: 917372 1.83474%
BRANCH_OTHER: 0 0%

