Initialize SIGNATURE TABLE
ST_SET: 1
ST_WAY: 256
ST_TAG_BIT: 16
ST_TAG_MASK: ffff

Initialize PATTERN TABLE
PT_SET: 512
PT_WAY: 4
SIG_DELTA_BIT: 7
C_SIG_BIT: 4
C_DELTA_BIT: 4

Initialize PREFETCH FILTER
FILTER_SET: 1024

*** ChampSim Multicore Out-of-Order Simulator ***

Warmup Instructions: 50000000
Simulation Instructions: 50000000
Number of CPUs: 1
LLC sets: 2048
LLC ways: 16
Off-chip DRAM Size: 4096 MB Channels: 1 Width: 64-bit Data Rate: 3200 MT/s

CPU 0 runs /home/tapatil/CSE240C/SA1/ChampSim-master/ipc1_public/server_013.champsimtrace.xz
L1I D-JOLT instruction prefetcher has been constructed!
CPU 0 L1D next line prefetcher
Heartbeat CPU 0 instructions: 10000000 cycles: 3211166 heartbeat IPC: 3.11413 cumulative IPC: 3.11413 (Simulation time: 0 hr 0 min 30 sec) 
Heartbeat CPU 0 instructions: 20000001 cycles: 6411622 heartbeat IPC: 3.12456 cumulative IPC: 3.11934 (Simulation time: 0 hr 1 min 0 sec) 
Heartbeat CPU 0 instructions: 30000002 cycles: 9615901 heartbeat IPC: 3.12083 cumulative IPC: 3.11983 (Simulation time: 0 hr 1 min 31 sec) 
Heartbeat CPU 0 instructions: 40000002 cycles: 12816106 heartbeat IPC: 3.1248 cumulative IPC: 3.12107 (Simulation time: 0 hr 2 min 1 sec) 
Heartbeat CPU 0 instructions: 50000000 cycles: 16016059 heartbeat IPC: 3.12505 cumulative IPC: 3.12187 (Simulation time: 0 hr 2 min 32 sec) 

Warmup complete CPU 0 instructions: 50000004 cycles: 16016060 (Simulation time: 0 hr 2 min 32 sec) 

Heartbeat CPU 0 instructions: 60000002 cycles: 23588900 heartbeat IPC: 1.32051 cumulative IPC: 1.32051 (Simulation time: 0 hr 3 min 2 sec) 
Heartbeat CPU 0 instructions: 70000002 cycles: 31332880 heartbeat IPC: 1.29133 cumulative IPC: 1.30575 (Simulation time: 0 hr 3 min 33 sec) 
Heartbeat CPU 0 instructions: 80000003 cycles: 38524483 heartbeat IPC: 1.39051 cumulative IPC: 1.33283 (Simulation time: 0 hr 4 min 3 sec) 
Heartbeat CPU 0 instructions: 90000003 cycles: 45914640 heartbeat IPC: 1.35315 cumulative IPC: 1.33786 (Simulation time: 0 hr 4 min 34 sec) 
Heartbeat CPU 0 instructions: 100000000 cycles: 53304313 heartbeat IPC: 1.35324 cumulative IPC: 1.3409 (Simulation time: 0 hr 5 min 3 sec) 
Finished CPU 0 instructions: 50000000 cycles: 37288254 cumulative IPC: 1.3409 (Simulation time: 0 hr 5 min 3 sec) 

ChampSim completed all CPUs

Region of Interest Statistics

CPU 0 cumulative IPC: 1.3409 instructions: 50000000 cycles: 37288254
L1D TOTAL     ACCESS:   17312930  HIT:   16246515  MISS:    1066415
L1D LOAD      ACCESS:    6312104  HIT:    5811180  MISS:     500924
L1D RFO       ACCESS:    4927701  HIT:    4847540  MISS:      80161
L1D PREFETCH  ACCESS:    6073125  HIT:    5587795  MISS:     485330
L1D WRITEBACK ACCESS:          0  HIT:          0  MISS:          0
L1D PREFETCH  REQUESTED:    6347339  ISSUED:    6253225  USEFUL:     133797  USELESS:     351541
L1D AVERAGE MISS LATENCY: 42.5443 cycles
L1I TOTAL     ACCESS:   16340049  HIT:   14186239  MISS:    2153810
L1I LOAD      ACCESS:    8712061  HIT:    8618704  MISS:      93357
L1I RFO       ACCESS:          0  HIT:          0  MISS:          0
L1I PREFETCH  ACCESS:    7627988  HIT:    5567535  MISS:    2060453
L1I WRITEBACK ACCESS:          0  HIT:          0  MISS:          0
L1I PREFETCH  REQUESTED:    8604281  ISSUED:    7982106  USEFUL:    1451719  USELESS:     608629
L1I AVERAGE MISS LATENCY: 30.9655 cycles
L2C TOTAL     ACCESS:    4266595  HIT:    2866387  MISS:    1400208
L2C LOAD      ACCESS:     528809  HIT:     241643  MISS:     287166
L2C RFO       ACCESS:      78850  HIT:      31323  MISS:      47527
L2C PREFETCH  ACCESS:    3383156  HIT:    2319258  MISS:    1063898
L2C WRITEBACK ACCESS:     275780  HIT:     274163  MISS:       1617
L2C PREFETCH  REQUESTED:    3261457  ISSUED:    3258292  USEFUL:      28315  USELESS:    1035738
L2C AVERAGE MISS LATENCY: 46.7807 cycles
LLC TOTAL     ACCESS:    2549526  HIT:    2374471  MISS:     175055
LLC LOAD      ACCESS:     287070  HIT:     263336  MISS:      23734
LLC RFO       ACCESS:      47522  HIT:      36982  MISS:      10540
LLC PREFETCH  ACCESS:    2043385  HIT:    1902961  MISS:     140424
LLC WRITEBACK ACCESS:     171549  HIT:     171192  MISS:        357
LLC PREFETCH  REQUESTED:          0  ISSUED:          0  USEFUL:      13128  USELESS:     126673
LLC AVERAGE MISS LATENCY: 175.684 cycles
Major fault: 0 Minor fault: 6209
CPU 0 L1D next line prefetcher final stats

DRAM Statistics
 CHANNEL 0
 RQ ROW_BUFFER_HIT:      27185  ROW_BUFFER_MISS:     147489
 DBUS_CONGESTED:      73757
 WQ ROW_BUFFER_HIT:      12211  ROW_BUFFER_MISS:      51125  FULL:          0

 AVG_CONGESTED_CYCLE: 5

CPU 0 Branch Prediction Accuracy: 99.4114% MPKI: 1.0933 Average ROB Occupancy at Mispredict: 124.317

Branch types
NOT_BRANCH: 40713286 81.4266%
BRANCH_DIRECT_JUMP: 463701 0.927402%
BRANCH_INDIRECT: 146544 0.293088%
BRANCH_CONDITIONAL: 6981957 13.9639%
BRANCH_DIRECT_CALL: 665005 1.33001%
BRANCH_INDIRECT_CALL: 165152 0.330304%
BRANCH_RETURN: 864314 1.72863%
BRANCH_OTHER: 0 0%

