Initialize SIGNATURE TABLE
ST_SET: 1
ST_WAY: 256
ST_TAG_BIT: 16
ST_TAG_MASK: ffff

Initialize PATTERN TABLE
PT_SET: 512
PT_WAY: 4
SIG_DELTA_BIT: 7
C_SIG_BIT: 4
C_DELTA_BIT: 4

Initialize PREFETCH FILTER
FILTER_SET: 1024

*** ChampSim Multicore Out-of-Order Simulator ***

Warmup Instructions: 50000000
Simulation Instructions: 50000000
Number of CPUs: 1
LLC sets: 2048
LLC ways: 16
Off-chip DRAM Size: 4096 MB Channels: 1 Width: 64-bit Data Rate: 3200 MT/s

CPU 0 runs /home/tapatil/CSE240C/SA1/ChampSim-master/ipc1_public/server_036.champsimtrace.xz
L1I D-JOLT instruction prefetcher has been constructed!
CPU 0 L1D next line prefetcher
Heartbeat CPU 0 instructions: 10000000 cycles: 3458960 heartbeat IPC: 2.89104 cumulative IPC: 2.89104 (Simulation time: 0 hr 0 min 32 sec) 
Heartbeat CPU 0 instructions: 20000000 cycles: 6924749 heartbeat IPC: 2.88535 cumulative IPC: 2.88819 (Simulation time: 0 hr 1 min 5 sec) 
Heartbeat CPU 0 instructions: 30000003 cycles: 10432824 heartbeat IPC: 2.85057 cumulative IPC: 2.87554 (Simulation time: 0 hr 1 min 38 sec) 
Heartbeat CPU 0 instructions: 40000000 cycles: 13895326 heartbeat IPC: 2.88808 cumulative IPC: 2.87867 (Simulation time: 0 hr 2 min 11 sec) 
Heartbeat CPU 0 instructions: 50000002 cycles: 17357028 heartbeat IPC: 2.88875 cumulative IPC: 2.88068 (Simulation time: 0 hr 2 min 45 sec) 

Warmup complete CPU 0 instructions: 50000002 cycles: 17357028 (Simulation time: 0 hr 2 min 45 sec) 

Heartbeat CPU 0 instructions: 60000000 cycles: 22974233 heartbeat IPC: 1.78024 cumulative IPC: 1.78024 (Simulation time: 0 hr 3 min 18 sec) 
Heartbeat CPU 0 instructions: 70000001 cycles: 28545378 heartbeat IPC: 1.79496 cumulative IPC: 1.78757 (Simulation time: 0 hr 3 min 51 sec) 
Heartbeat CPU 0 instructions: 80000001 cycles: 34147659 heartbeat IPC: 1.78499 cumulative IPC: 1.78671 (Simulation time: 0 hr 4 min 24 sec) 
Heartbeat CPU 0 instructions: 90000002 cycles: 39729634 heartbeat IPC: 1.79148 cumulative IPC: 1.7879 (Simulation time: 0 hr 4 min 56 sec) 
Heartbeat CPU 0 instructions: 100000001 cycles: 45304464 heartbeat IPC: 1.79378 cumulative IPC: 1.78907 (Simulation time: 0 hr 5 min 28 sec) 
Finished CPU 0 instructions: 50000003 cycles: 27947437 cumulative IPC: 1.78907 (Simulation time: 0 hr 5 min 28 sec) 

ChampSim completed all CPUs

Region of Interest Statistics

CPU 0 cumulative IPC: 1.78907 instructions: 50000003 cycles: 27947437
L1D TOTAL     ACCESS:   20450488  HIT:   20390284  MISS:      60204
L1D LOAD      ACCESS:    6655811  HIT:    6620983  MISS:      34828
L1D RFO       ACCESS:    7343383  HIT:    7336160  MISS:       7223
L1D PREFETCH  ACCESS:    6451294  HIT:    6433141  MISS:      18153
L1D WRITEBACK ACCESS:          0  HIT:          0  MISS:          0
L1D PREFETCH  REQUESTED:    6656778  ISSUED:    6481388  USEFUL:       5465  USELESS:      12689
L1D AVERAGE MISS LATENCY: 17.8964 cycles
L1I TOTAL     ACCESS:   16999299  HIT:   12239853  MISS:    4759446
L1I LOAD      ACCESS:    8983109  HIT:    8960644  MISS:      22465
L1I RFO       ACCESS:          0  HIT:          0  MISS:          0
L1I PREFETCH  ACCESS:    8016190  HIT:    3279209  MISS:    4736981
L1I WRITEBACK ACCESS:          0  HIT:          0  MISS:          0
L1I PREFETCH  REQUESTED:    8215012  ISSUED:    8191371  USEFUL:    3942748  USELESS:     794211
L1I AVERAGE MISS LATENCY: 14.6518 cycles
L2C TOTAL     ACCESS:    6961026  HIT:    6958878  MISS:       2148
L2C LOAD      ACCESS:      57105  HIT:      56699  MISS:        406
L2C RFO       ACCESS:       7215  HIT:       7168  MISS:         47
L2C PREFETCH  ACCESS:    6881077  HIT:    6879389  MISS:       1688
L2C WRITEBACK ACCESS:      15629  HIT:      15622  MISS:          7
L2C PREFETCH  REQUESTED:    5314241  ISSUED:    5311684  USEFUL:        250  USELESS:       1025
L2C AVERAGE MISS LATENCY: 158.651 cycles
LLC TOTAL     ACCESS:     943552  HIT:     940743  MISS:       2809
LLC LOAD      ACCESS:        405  HIT:        148  MISS:        257
LLC RFO       ACCESS:         47  HIT:         18  MISS:         29
LLC PREFETCH  ACCESS:     942324  HIT:     939806  MISS:       2518
LLC WRITEBACK ACCESS:        776  HIT:        771  MISS:          5
LLC PREFETCH  REQUESTED:          0  ISSUED:          0  USEFUL:         77  USELESS:        667
LLC AVERAGE MISS LATENCY: 270.441 cycles
Major fault: 0 Minor fault: 1934
CPU 0 L1D next line prefetcher final stats

DRAM Statistics
 CHANNEL 0
 RQ ROW_BUFFER_HIT:        547  ROW_BUFFER_MISS:       2257
 DBUS_CONGESTED:       1706
 WQ ROW_BUFFER_HIT:        325  ROW_BUFFER_MISS:       1632  FULL:          0

 AVG_CONGESTED_CYCLE: 6

CPU 0 Branch Prediction Accuracy: 99.8717% MPKI: 0.21174 Average ROB Occupancy at Mispredict: 231.659

Branch types
NOT_BRANCH: 41748430 83.4969%
BRANCH_DIRECT_JUMP: 468563 0.937126%
BRANCH_INDIRECT: 0 0%
BRANCH_CONDITIONAL: 5599753 11.1995%
BRANCH_DIRECT_CALL: 885105 1.77021%
BRANCH_INDIRECT_CALL: 206338 0.412676%
BRANCH_RETURN: 1091467 2.18293%
BRANCH_OTHER: 0 0%

