Initialize SIGNATURE TABLE
ST_SET: 1
ST_WAY: 256
ST_TAG_BIT: 16
ST_TAG_MASK: ffff

Initialize PATTERN TABLE
PT_SET: 512
PT_WAY: 4
SIG_DELTA_BIT: 7
C_SIG_BIT: 4
C_DELTA_BIT: 4

Initialize PREFETCH FILTER
FILTER_SET: 1024

*** ChampSim Multicore Out-of-Order Simulator ***

Warmup Instructions: 50000000
Simulation Instructions: 50000000
Number of CPUs: 1
LLC sets: 2048
LLC ways: 16
Off-chip DRAM Size: 4096 MB Channels: 1 Width: 64-bit Data Rate: 3200 MT/s

CPU 0 runs /home/tapatil/CSE240C/SA1/ChampSim-master/ipc1_public/server_026.champsimtrace.xz
L1I D-JOLT instruction prefetcher has been constructed!
CPU 0 L1D next line prefetcher
Heartbeat CPU 0 instructions: 10000000 cycles: 3523215 heartbeat IPC: 2.83832 cumulative IPC: 2.83832 (Simulation time: 0 hr 0 min 33 sec) 
Heartbeat CPU 0 instructions: 20000002 cycles: 7052216 heartbeat IPC: 2.83366 cumulative IPC: 2.83599 (Simulation time: 0 hr 1 min 7 sec) 
Heartbeat CPU 0 instructions: 30000000 cycles: 10570971 heartbeat IPC: 2.84191 cumulative IPC: 2.83796 (Simulation time: 0 hr 1 min 40 sec) 
Heartbeat CPU 0 instructions: 40000003 cycles: 14098669 heartbeat IPC: 2.83471 cumulative IPC: 2.83715 (Simulation time: 0 hr 2 min 14 sec) 
Heartbeat CPU 0 instructions: 50000000 cycles: 17618967 heartbeat IPC: 2.84067 cumulative IPC: 2.83785 (Simulation time: 0 hr 2 min 47 sec) 

Warmup complete CPU 0 instructions: 50000004 cycles: 17618968 (Simulation time: 0 hr 2 min 47 sec) 

*** Reached end of trace for Core: 0 Repeating trace: /home/tapatil/CSE240C/SA1/ChampSim-master/ipc1_public/server_026.champsimtrace.xz
Heartbeat CPU 0 instructions: 60000000 cycles: 24539244 heartbeat IPC: 1.44503 cumulative IPC: 1.44503 (Simulation time: 0 hr 3 min 24 sec) 
Heartbeat CPU 0 instructions: 70000003 cycles: 31349660 heartbeat IPC: 1.46834 cumulative IPC: 1.45659 (Simulation time: 0 hr 4 min 0 sec) 
Heartbeat CPU 0 instructions: 80000002 cycles: 38255095 heartbeat IPC: 1.44813 cumulative IPC: 1.45376 (Simulation time: 0 hr 4 min 36 sec) 
Heartbeat CPU 0 instructions: 90000002 cycles: 45067348 heartbeat IPC: 1.46794 cumulative IPC: 1.45728 (Simulation time: 0 hr 5 min 12 sec) 
Heartbeat CPU 0 instructions: 100000000 cycles: 51950195 heartbeat IPC: 1.45289 cumulative IPC: 1.4564 (Simulation time: 0 hr 5 min 47 sec) 
Finished CPU 0 instructions: 50000000 cycles: 34331228 cumulative IPC: 1.4564 (Simulation time: 0 hr 5 min 47 sec) 

ChampSim completed all CPUs

Region of Interest Statistics

CPU 0 cumulative IPC: 1.4564 instructions: 50000000 cycles: 34331228
L1D TOTAL     ACCESS:   19755423  HIT:   18110465  MISS:    1644958
L1D LOAD      ACCESS:    6925616  HIT:    6196552  MISS:     729064
L1D RFO       ACCESS:    6240475  HIT:    5954214  MISS:     286261
L1D PREFETCH  ACCESS:    6589332  HIT:    5959699  MISS:     629633
L1D WRITEBACK ACCESS:          0  HIT:          0  MISS:          0
L1D PREFETCH  REQUESTED:    6973344  ISSUED:    6830888  USEFUL:     151962  USELESS:     477680
L1D AVERAGE MISS LATENCY: 24.4953 cycles
L1I TOTAL     ACCESS:   15905684  HIT:   12676966  MISS:    3228718
L1I LOAD      ACCESS:    9513781  HIT:    9463788  MISS:      49993
L1I RFO       ACCESS:          0  HIT:          0  MISS:          0
L1I PREFETCH  ACCESS:    6391903  HIT:    3213178  MISS:    3178725
L1I WRITEBACK ACCESS:          0  HIT:          0  MISS:          0
L1I PREFETCH  REQUESTED:    6781362  ISSUED:    6699167  USEFUL:    2744491  USELESS:     434238
L1I AVERAGE MISS LATENCY: 19.9101 cycles
L2C TOTAL     ACCESS:    6802141  HIT:    5874984  MISS:     927157
L2C LOAD      ACCESS:     724308  HIT:     570737  MISS:     153571
L2C RFO       ACCESS:     284546  HIT:     182438  MISS:     102108
L2C PREFETCH  ACCESS:    5232099  HIT:    4565265  MISS:     666834
L2C WRITEBACK ACCESS:     561188  HIT:     556544  MISS:       4644
L2C PREFETCH  REQUESTED:    4983564  ISSUED:    4975570  USEFUL:      12259  USELESS:     654401
L2C AVERAGE MISS LATENCY: 37.445 cycles
LLC TOTAL     ACCESS:    2462459  HIT:    2427194  MISS:      35265
LLC LOAD      ACCESS:     153278  HIT:     149777  MISS:       3501
LLC RFO       ACCESS:     102099  HIT:      87537  MISS:      14562
LLC PREFETCH  ACCESS:    2033971  HIT:    2016956  MISS:      17015
LLC WRITEBACK ACCESS:     173111  HIT:     172924  MISS:        187
LLC PREFETCH  REQUESTED:          0  ISSUED:          0  USEFUL:       1012  USELESS:      16157
LLC AVERAGE MISS LATENCY: 190.216 cycles
Major fault: 0 Minor fault: 2173
CPU 0 L1D next line prefetcher final stats

DRAM Statistics
 CHANNEL 0
 RQ ROW_BUFFER_HIT:      12341  ROW_BUFFER_MISS:      22732
 DBUS_CONGESTED:      23668
 WQ ROW_BUFFER_HIT:       1435  ROW_BUFFER_MISS:      14386  FULL:          0

 AVG_CONGESTED_CYCLE: 6

CPU 0 Branch Prediction Accuracy: 99.822% MPKI: 0.32584 Average ROB Occupancy at Mispredict: 200.466

Branch types
NOT_BRANCH: 40848584 81.6972%
BRANCH_DIRECT_JUMP: 522045 1.04409%
BRANCH_INDIRECT: 204034 0.408068%
BRANCH_CONDITIONAL: 6212964 12.4259%
BRANCH_DIRECT_CALL: 932393 1.86479%
BRANCH_INDIRECT_CALL: 173764 0.347528%
BRANCH_RETURN: 1106152 2.2123%
BRANCH_OTHER: 0 0%

