Initialize SIGNATURE TABLE
ST_SET: 1
ST_WAY: 256
ST_TAG_BIT: 16
ST_TAG_MASK: ffff

Initialize PATTERN TABLE
PT_SET: 512
PT_WAY: 4
SIG_DELTA_BIT: 7
C_SIG_BIT: 4
C_DELTA_BIT: 4

Initialize PREFETCH FILTER
FILTER_SET: 1024

*** ChampSim Multicore Out-of-Order Simulator ***

Warmup Instructions: 50000000
Simulation Instructions: 50000000
Number of CPUs: 1
LLC sets: 2048
LLC ways: 16
Off-chip DRAM Size: 4096 MB Channels: 1 Width: 64-bit Data Rate: 3200 MT/s

CPU 0 runs /home/tapatil/CSE240C/SA1/ChampSim-master/ipc1_public/server_031.champsimtrace.xz
L1I D-JOLT instruction prefetcher has been constructed!
CPU 0 L1D next line prefetcher
Heartbeat CPU 0 instructions: 10000003 cycles: 3522474 heartbeat IPC: 2.83891 cumulative IPC: 2.83891 (Simulation time: 0 hr 0 min 35 sec) 
Heartbeat CPU 0 instructions: 20000002 cycles: 7044096 heartbeat IPC: 2.8396 cumulative IPC: 2.83926 (Simulation time: 0 hr 1 min 11 sec) 
Heartbeat CPU 0 instructions: 30000002 cycles: 10564723 heartbeat IPC: 2.8404 cumulative IPC: 2.83964 (Simulation time: 0 hr 1 min 45 sec) 
Heartbeat CPU 0 instructions: 40000003 cycles: 14080735 heartbeat IPC: 2.84413 cumulative IPC: 2.84076 (Simulation time: 0 hr 2 min 20 sec) 
Heartbeat CPU 0 instructions: 50000001 cycles: 17600380 heartbeat IPC: 2.8412 cumulative IPC: 2.84085 (Simulation time: 0 hr 2 min 54 sec) 

Warmup complete CPU 0 instructions: 50000001 cycles: 17600380 (Simulation time: 0 hr 2 min 54 sec) 

Heartbeat CPU 0 instructions: 60000001 cycles: 25067681 heartbeat IPC: 1.33917 cumulative IPC: 1.33917 (Simulation time: 0 hr 3 min 31 sec) 
Heartbeat CPU 0 instructions: 70000002 cycles: 32585041 heartbeat IPC: 1.33025 cumulative IPC: 1.3347 (Simulation time: 0 hr 4 min 8 sec) 
*** Reached end of trace for Core: 0 Repeating trace: /home/tapatil/CSE240C/SA1/ChampSim-master/ipc1_public/server_031.champsimtrace.xz
Heartbeat CPU 0 instructions: 80000000 cycles: 39976275 heartbeat IPC: 1.35295 cumulative IPC: 1.34073 (Simulation time: 0 hr 4 min 46 sec) 
Heartbeat CPU 0 instructions: 90000003 cycles: 47403247 heartbeat IPC: 1.34644 cumulative IPC: 1.34215 (Simulation time: 0 hr 5 min 24 sec) 
Heartbeat CPU 0 instructions: 100000000 cycles: 54794963 heartbeat IPC: 1.35287 cumulative IPC: 1.34428 (Simulation time: 0 hr 6 min 1 sec) 
Finished CPU 0 instructions: 50000000 cycles: 37194585 cumulative IPC: 1.34428 (Simulation time: 0 hr 6 min 1 sec) 

ChampSim completed all CPUs

Region of Interest Statistics

CPU 0 cumulative IPC: 1.34428 instructions: 50000000 cycles: 37194585
L1D TOTAL     ACCESS:   19506997  HIT:   17602610  MISS:    1904387
L1D LOAD      ACCESS:    6760471  HIT:    5888144  MISS:     872327
L1D RFO       ACCESS:    6326783  HIT:    6035488  MISS:     291295
L1D PREFETCH  ACCESS:    6419743  HIT:    5678978  MISS:     740765
L1D WRITEBACK ACCESS:          0  HIT:          0  MISS:          0
L1D PREFETCH  REQUESTED:    6821273  ISSUED:    6707093  USEFUL:     174965  USELESS:     565804
L1D AVERAGE MISS LATENCY: 22.7526 cycles
L1I TOTAL     ACCESS:   17098415  HIT:   13585712  MISS:    3512703
L1I LOAD      ACCESS:    9725090  HIT:    9688009  MISS:      37081
L1I RFO       ACCESS:          0  HIT:          0  MISS:          0
L1I PREFETCH  ACCESS:    7373325  HIT:    3897703  MISS:    3475622
L1I WRITEBACK ACCESS:          0  HIT:          0  MISS:          0
L1I PREFETCH  REQUESTED:    7913844  ISSUED:    7788534  USEFUL:    3016029  USELESS:     459604
L1I AVERAGE MISS LATENCY: 18.0453 cycles
L2C TOTAL     ACCESS:    7709631  HIT:    7058206  MISS:     651425
L2C LOAD      ACCESS:     858359  HIT:     725755  MISS:     132604
L2C RFO       ACCESS:     289337  HIT:     244229  MISS:      45108
L2C PREFETCH  ACCESS:    5945001  HIT:    5472798  MISS:     472203
L2C WRITEBACK ACCESS:     616934  HIT:     615424  MISS:       1510
L2C PREFETCH  REQUESTED:    5222423  ISSUED:    5213423  USEFUL:       4754  USELESS:     466812
L2C AVERAGE MISS LATENCY: 43.8028 cycles
LLC TOTAL     ACCESS:    2064123  HIT:    1988780  MISS:      75343
LLC LOAD      ACCESS:     132566  HIT:     113913  MISS:      18653
LLC RFO       ACCESS:      45107  HIT:      40961  MISS:       4146
LLC PREFETCH  ACCESS:    1799861  HIT:    1747856  MISS:      52005
LLC WRITEBACK ACCESS:      86589  HIT:      86050  MISS:        539
LLC PREFETCH  REQUESTED:          0  ISSUED:          0  USEFUL:       2459  USELESS:      50612
LLC AVERAGE MISS LATENCY: 157.432 cycles
Major fault: 0 Minor fault: 6047
CPU 0 L1D next line prefetcher final stats

DRAM Statistics
 CHANNEL 0
 RQ ROW_BUFFER_HIT:      20392  ROW_BUFFER_MISS:      54405
 DBUS_CONGESTED:      29081
 WQ ROW_BUFFER_HIT:        690  ROW_BUFFER_MISS:       5072  FULL:          0

 AVG_CONGESTED_CYCLE: 4

CPU 0 Branch Prediction Accuracy: 99.6894% MPKI: 0.58048 Average ROB Occupancy at Mispredict: 141.255

Branch types
NOT_BRANCH: 40655733 81.3115%
BRANCH_DIRECT_JUMP: 546483 1.09297%
BRANCH_INDIRECT: 172433 0.344866%
BRANCH_CONDITIONAL: 6207601 12.4152%
BRANCH_DIRECT_CALL: 1018499 2.037%
BRANCH_INDIRECT_CALL: 190373 0.380746%
BRANCH_RETURN: 1208856 2.41771%
BRANCH_OTHER: 0 0%

