Initialize SIGNATURE TABLE
ST_SET: 1
ST_WAY: 256
ST_TAG_BIT: 16
ST_TAG_MASK: ffff

Initialize PATTERN TABLE
PT_SET: 512
PT_WAY: 4
SIG_DELTA_BIT: 7
C_SIG_BIT: 4
C_DELTA_BIT: 4

Initialize PREFETCH FILTER
FILTER_SET: 1024

*** ChampSim Multicore Out-of-Order Simulator ***

Warmup Instructions: 50000000
Simulation Instructions: 50000000
Number of CPUs: 1
LLC sets: 2048
LLC ways: 16
Off-chip DRAM Size: 4096 MB Channels: 1 Width: 64-bit Data Rate: 3200 MT/s

CPU 0 runs /home/tapatil/CSE240C/SA1/ChampSim-master/ipc1_public/server_024.champsimtrace.xz
L1I D-JOLT instruction prefetcher has been constructed!
CPU 0 L1D next line prefetcher
Heartbeat CPU 0 instructions: 10000000 cycles: 3498533 heartbeat IPC: 2.85834 cumulative IPC: 2.85834 (Simulation time: 0 hr 0 min 32 sec) 
Heartbeat CPU 0 instructions: 20000002 cycles: 6989752 heartbeat IPC: 2.86433 cumulative IPC: 2.86133 (Simulation time: 0 hr 1 min 5 sec) 
Heartbeat CPU 0 instructions: 30000000 cycles: 10491070 heartbeat IPC: 2.85607 cumulative IPC: 2.85957 (Simulation time: 0 hr 1 min 37 sec) 
Heartbeat CPU 0 instructions: 40000000 cycles: 13989917 heartbeat IPC: 2.85808 cumulative IPC: 2.8592 (Simulation time: 0 hr 2 min 10 sec) 
Heartbeat CPU 0 instructions: 50000001 cycles: 17478783 heartbeat IPC: 2.86626 cumulative IPC: 2.86061 (Simulation time: 0 hr 2 min 43 sec) 

Warmup complete CPU 0 instructions: 50000001 cycles: 17478783 (Simulation time: 0 hr 2 min 43 sec) 

Heartbeat CPU 0 instructions: 60000002 cycles: 24220583 heartbeat IPC: 1.48328 cumulative IPC: 1.48328 (Simulation time: 0 hr 3 min 17 sec) 
Heartbeat CPU 0 instructions: 70000000 cycles: 31005322 heartbeat IPC: 1.4739 cumulative IPC: 1.47857 (Simulation time: 0 hr 3 min 52 sec) 
*** Reached end of trace for Core: 0 Repeating trace: /home/tapatil/CSE240C/SA1/ChampSim-master/ipc1_public/server_024.champsimtrace.xz
Heartbeat CPU 0 instructions: 80000003 cycles: 37772434 heartbeat IPC: 1.47774 cumulative IPC: 1.47829 (Simulation time: 0 hr 4 min 27 sec) 
Heartbeat CPU 0 instructions: 90000003 cycles: 44600258 heartbeat IPC: 1.4646 cumulative IPC: 1.47485 (Simulation time: 0 hr 5 min 2 sec) 
Heartbeat CPU 0 instructions: 100000002 cycles: 51390743 heartbeat IPC: 1.47265 cumulative IPC: 1.47441 (Simulation time: 0 hr 5 min 38 sec) 
Finished CPU 0 instructions: 50000001 cycles: 33911960 cumulative IPC: 1.47441 (Simulation time: 0 hr 5 min 38 sec) 

ChampSim completed all CPUs

Region of Interest Statistics

CPU 0 cumulative IPC: 1.47441 instructions: 50000001 cycles: 33911960
L1D TOTAL     ACCESS:   19652286  HIT:   18135030  MISS:    1517256
L1D LOAD      ACCESS:    6916095  HIT:    6235835  MISS:     680260
L1D RFO       ACCESS:    6149423  HIT:    5875901  MISS:     273522
L1D PREFETCH  ACCESS:    6586768  HIT:    6023294  MISS:     563474
L1D WRITEBACK ACCESS:          0  HIT:          0  MISS:          0
L1D PREFETCH  REQUESTED:    6971054  ISSUED:    6848706  USEFUL:     136145  USELESS:     427334
L1D AVERAGE MISS LATENCY: 25.8928 cycles
L1I TOTAL     ACCESS:   15279454  HIT:   12301497  MISS:    2977957
L1I LOAD      ACCESS:    9343621  HIT:    9296261  MISS:      47360
L1I RFO       ACCESS:          0  HIT:          0  MISS:          0
L1I PREFETCH  ACCESS:    5935833  HIT:    3005236  MISS:    2930597
L1I WRITEBACK ACCESS:          0  HIT:          0  MISS:          0
L1I PREFETCH  REQUESTED:    6317393  ISSUED:    6236388  USEFUL:    2494593  USELESS:     435995
L1I AVERAGE MISS LATENCY: 19.6244 cycles
L2C TOTAL     ACCESS:    6259403  HIT:    5434226  MISS:     825177
L2C LOAD      ACCESS:     660104  HIT:     522862  MISS:     137242
L2C RFO       ACCESS:     272086  HIT:     177585  MISS:      94501
L2C PREFETCH  ACCESS:    4807074  HIT:    4219463  MISS:     587611
L2C WRITEBACK ACCESS:     520139  HIT:     514316  MISS:       5823
L2C PREFETCH  REQUESTED:    4305174  ISSUED:    4299926  USEFUL:      10203  USELESS:     577149
L2C AVERAGE MISS LATENCY: 41.6382 cycles
LLC TOTAL     ACCESS:    2158532  HIT:    2104517  MISS:      54015
LLC LOAD      ACCESS:     136963  HIT:     131315  MISS:       5648
LLC RFO       ACCESS:      94494  HIT:      72216  MISS:      22278
LLC PREFETCH  ACCESS:    1771321  HIT:    1745500  MISS:      25821
LLC WRITEBACK ACCESS:     155754  HIT:     155486  MISS:        268
LLC PREFETCH  REQUESTED:          0  ISSUED:          0  USEFUL:       1926  USELESS:      23518
LLC AVERAGE MISS LATENCY: 196.039 cycles
Major fault: 0 Minor fault: 2372
CPU 0 L1D next line prefetcher final stats

DRAM Statistics
 CHANNEL 0
 RQ ROW_BUFFER_HIT:      18107  ROW_BUFFER_MISS:      35631
 DBUS_CONGESTED:      37494
 WQ ROW_BUFFER_HIT:       2620  ROW_BUFFER_MISS:      23383  FULL:          0

 AVG_CONGESTED_CYCLE: 6

CPU 0 Branch Prediction Accuracy: 99.7477% MPKI: 0.46156 Average ROB Occupancy at Mispredict: 174.926

Branch types
NOT_BRANCH: 40853687 81.7074%
BRANCH_DIRECT_JUMP: 566820 1.13364%
BRANCH_INDIRECT: 197171 0.394342%
BRANCH_CONDITIONAL: 6308425 12.6168%
BRANCH_DIRECT_CALL: 876400 1.7528%
BRANCH_INDIRECT_CALL: 160491 0.320982%
BRANCH_RETURN: 1036885 2.07377%
BRANCH_OTHER: 0 0%

