Initialize SIGNATURE TABLE
ST_SET: 1
ST_WAY: 256
ST_TAG_BIT: 16
ST_TAG_MASK: ffff

Initialize PATTERN TABLE
PT_SET: 512
PT_WAY: 4
SIG_DELTA_BIT: 7
C_SIG_BIT: 4
C_DELTA_BIT: 4

Initialize PREFETCH FILTER
FILTER_SET: 1024

*** ChampSim Multicore Out-of-Order Simulator ***

Warmup Instructions: 50000000
Simulation Instructions: 50000000
Number of CPUs: 1
LLC sets: 2048
LLC ways: 16
Off-chip DRAM Size: 4096 MB Channels: 1 Width: 64-bit Data Rate: 3200 MT/s

CPU 0 runs /home/tapatil/CSE240C/SA1/ChampSim-master/ipc1_public/server_025.champsimtrace.xz
L1I D-JOLT instruction prefetcher has been constructed!
CPU 0 L1D next line prefetcher
Heartbeat CPU 0 instructions: 10000003 cycles: 3524090 heartbeat IPC: 2.83761 cumulative IPC: 2.83761 (Simulation time: 0 hr 0 min 34 sec) 
Heartbeat CPU 0 instructions: 20000000 cycles: 7055396 heartbeat IPC: 2.83181 cumulative IPC: 2.83471 (Simulation time: 0 hr 1 min 8 sec) 
Heartbeat CPU 0 instructions: 30000001 cycles: 10578720 heartbeat IPC: 2.83823 cumulative IPC: 2.83588 (Simulation time: 0 hr 1 min 42 sec) 
Heartbeat CPU 0 instructions: 40000003 cycles: 14108184 heartbeat IPC: 2.83329 cumulative IPC: 2.83523 (Simulation time: 0 hr 2 min 16 sec) 
Heartbeat CPU 0 instructions: 50000001 cycles: 17635475 heartbeat IPC: 2.83504 cumulative IPC: 2.83519 (Simulation time: 0 hr 2 min 49 sec) 

Warmup complete CPU 0 instructions: 50000001 cycles: 17635475 (Simulation time: 0 hr 2 min 49 sec) 

Heartbeat CPU 0 instructions: 60000002 cycles: 24419527 heartbeat IPC: 1.47405 cumulative IPC: 1.47405 (Simulation time: 0 hr 3 min 24 sec) 
Heartbeat CPU 0 instructions: 70000000 cycles: 31311323 heartbeat IPC: 1.451 cumulative IPC: 1.46243 (Simulation time: 0 hr 4 min 0 sec) 
Heartbeat CPU 0 instructions: 80000002 cycles: 38120751 heartbeat IPC: 1.46855 cumulative IPC: 1.46447 (Simulation time: 0 hr 4 min 37 sec) 
Heartbeat CPU 0 instructions: 90000001 cycles: 44593191 heartbeat IPC: 1.54501 cumulative IPC: 1.48381 (Simulation time: 0 hr 5 min 12 sec) 
Heartbeat CPU 0 instructions: 100000003 cycles: 50788149 heartbeat IPC: 1.61422 cumulative IPC: 1.50817 (Simulation time: 0 hr 5 min 46 sec) 
Finished CPU 0 instructions: 50000002 cycles: 33152674 cumulative IPC: 1.50817 (Simulation time: 0 hr 5 min 46 sec) 

ChampSim completed all CPUs

Region of Interest Statistics

CPU 0 cumulative IPC: 1.50817 instructions: 50000002 cycles: 33152674
L1D TOTAL     ACCESS:   19970782  HIT:   18545382  MISS:    1425400
L1D LOAD      ACCESS:    6951377  HIT:    6332423  MISS:     618954
L1D RFO       ACCESS:    6378795  HIT:    6130671  MISS:     248124
L1D PREFETCH  ACCESS:    6640610  HIT:    6082288  MISS:     558322
L1D WRITEBACK ACCESS:          0  HIT:          0  MISS:          0
L1D PREFETCH  REQUESTED:    6991534  ISSUED:    6816502  USEFUL:     131058  USELESS:     427258
L1D AVERAGE MISS LATENCY: 23.1385 cycles
L1I TOTAL     ACCESS:   15227980  HIT:   12421456  MISS:    2806524
L1I LOAD      ACCESS:    9507374  HIT:    9454387  MISS:      52987
L1I RFO       ACCESS:          0  HIT:          0  MISS:          0
L1I PREFETCH  ACCESS:    5720606  HIT:    2967069  MISS:    2753537
L1I WRITEBACK ACCESS:          0  HIT:          0  MISS:          0
L1I PREFETCH  REQUESTED:    6065412  ISSUED:    6003963  USEFUL:    2417891  USELESS:     335649
L1I AVERAGE MISS LATENCY: 19.5717 cycles
L2C TOTAL     ACCESS:    5911952  HIT:    5189435  MISS:     722517
L2C LOAD      ACCESS:     633962  HIT:     517323  MISS:     116639
L2C RFO       ACCESS:     246681  HIT:     172651  MISS:      74030
L2C PREFETCH  ACCESS:    4534534  HIT:    4005433  MISS:     529101
L2C WRITEBACK ACCESS:     496775  HIT:     494028  MISS:       2747
L2C PREFETCH  REQUESTED:    4009463  ISSUED:    4002843  USEFUL:       9259  USELESS:     519651
L2C AVERAGE MISS LATENCY: 37.5981 cycles
LLC TOTAL     ACCESS:    1931445  HIT:    1902382  MISS:      29063
LLC LOAD      ACCESS:     116542  HIT:     113333  MISS:       3209
LLC RFO       ACCESS:      73991  HIT:      63176  MISS:      10815
LLC PREFETCH  ACCESS:    1612111  HIT:    1597288  MISS:      14823
LLC WRITEBACK ACCESS:     128801  HIT:     128585  MISS:        216
LLC PREFETCH  REQUESTED:          0  ISSUED:          0  USEFUL:       1069  USELESS:      13504
LLC AVERAGE MISS LATENCY: 179.191 cycles
Major fault: 0 Minor fault: 2464
CPU 0 L1D next line prefetcher final stats

DRAM Statistics
 CHANNEL 0
 RQ ROW_BUFFER_HIT:       9374  ROW_BUFFER_MISS:      19471
 DBUS_CONGESTED:      18536
 WQ ROW_BUFFER_HIT:       1279  ROW_BUFFER_MISS:      11510  FULL:          0

 AVG_CONGESTED_CYCLE: 6

CPU 0 Branch Prediction Accuracy: 99.8142% MPKI: 0.34676 Average ROB Occupancy at Mispredict: 201.674

Branch types
NOT_BRANCH: 40668925 81.3378%
BRANCH_DIRECT_JUMP: 531701 1.0634%
BRANCH_INDIRECT: 199025 0.39805%
BRANCH_CONDITIONAL: 6211500 12.423%
BRANCH_DIRECT_CALL: 1010912 2.02182%
BRANCH_INDIRECT_CALL: 183501 0.367002%
BRANCH_RETURN: 1194416 2.38883%
BRANCH_OTHER: 0 0%

