Initialize SIGNATURE TABLE
ST_SET: 1
ST_WAY: 256
ST_TAG_BIT: 16
ST_TAG_MASK: ffff

Initialize PATTERN TABLE
PT_SET: 512
PT_WAY: 4
SIG_DELTA_BIT: 7
C_SIG_BIT: 4
C_DELTA_BIT: 4

Initialize PREFETCH FILTER
FILTER_SET: 1024

*** ChampSim Multicore Out-of-Order Simulator ***

Warmup Instructions: 50000000
Simulation Instructions: 50000000
Number of CPUs: 1
LLC sets: 2048
LLC ways: 16
Off-chip DRAM Size: 4096 MB Channels: 1 Width: 64-bit Data Rate: 3200 MT/s

CPU 0 runs /home/tapatil/CSE240C/SA1/ChampSim-master/ipc1_public/server_010.champsimtrace.xz
L1I D-JOLT instruction prefetcher has been constructed!
CPU 0 L1D next line prefetcher
Heartbeat CPU 0 instructions: 10000000 cycles: 3194046 heartbeat IPC: 3.13083 cumulative IPC: 3.13083 (Simulation time: 0 hr 0 min 31 sec) 
Heartbeat CPU 0 instructions: 20000002 cycles: 6385410 heartbeat IPC: 3.13346 cumulative IPC: 3.13214 (Simulation time: 0 hr 1 min 1 sec) 
Heartbeat CPU 0 instructions: 30000001 cycles: 9579667 heartbeat IPC: 3.13062 cumulative IPC: 3.13163 (Simulation time: 0 hr 1 min 31 sec) 
Heartbeat CPU 0 instructions: 40000000 cycles: 12770684 heartbeat IPC: 3.1338 cumulative IPC: 3.13217 (Simulation time: 0 hr 2 min 2 sec) 
Heartbeat CPU 0 instructions: 50000003 cycles: 15966892 heartbeat IPC: 3.12871 cumulative IPC: 3.13148 (Simulation time: 0 hr 2 min 32 sec) 

Warmup complete CPU 0 instructions: 50000003 cycles: 15966892 (Simulation time: 0 hr 2 min 32 sec) 

Heartbeat CPU 0 instructions: 60000001 cycles: 23157433 heartbeat IPC: 1.39072 cumulative IPC: 1.39072 (Simulation time: 0 hr 3 min 2 sec) 
Heartbeat CPU 0 instructions: 70000000 cycles: 30367458 heartbeat IPC: 1.38696 cumulative IPC: 1.38883 (Simulation time: 0 hr 3 min 32 sec) 
Heartbeat CPU 0 instructions: 80000003 cycles: 37634978 heartbeat IPC: 1.37599 cumulative IPC: 1.38452 (Simulation time: 0 hr 4 min 3 sec) 
Heartbeat CPU 0 instructions: 90000002 cycles: 44678083 heartbeat IPC: 1.41983 cumulative IPC: 1.39318 (Simulation time: 0 hr 4 min 34 sec) 
Heartbeat CPU 0 instructions: 100000003 cycles: 65294284 heartbeat IPC: 0.485055 cumulative IPC: 1.01364 (Simulation time: 0 hr 5 min 23 sec) 
Finished CPU 0 instructions: 50000000 cycles: 49327392 cumulative IPC: 1.01364 (Simulation time: 0 hr 5 min 23 sec) 

ChampSim completed all CPUs

Region of Interest Statistics

CPU 0 cumulative IPC: 1.01364 instructions: 50000000 cycles: 49327392
L1D TOTAL     ACCESS:   19889496  HIT:   16664373  MISS:    3225123
L1D LOAD      ACCESS:    7701280  HIT:    6108119  MISS:    1593161
L1D RFO       ACCESS:    4710908  HIT:    4616658  MISS:      94250
L1D PREFETCH  ACCESS:    7477308  HIT:    5939596  MISS:    1537712
L1D WRITEBACK ACCESS:          0  HIT:          0  MISS:          0
L1D PREFETCH  REQUESTED:    7733867  ISSUED:    7636980  USEFUL:     117179  USELESS:    1420505
L1D AVERAGE MISS LATENCY: 22.821 cycles
L1I TOTAL     ACCESS:   16799438  HIT:   15115497  MISS:    1683941
L1I LOAD      ACCESS:    9984317  HIT:    9920947  MISS:      63370
L1I RFO       ACCESS:          0  HIT:          0  MISS:          0
L1I PREFETCH  ACCESS:    6815121  HIT:    5194550  MISS:    1620571
L1I WRITEBACK ACCESS:          0  HIT:          0  MISS:          0
L1I PREFETCH  REQUESTED:    7454386  ISSUED:    7171378  USEFUL:    1210351  USELESS:     410140
L1I AVERAGE MISS LATENCY: 30.8065 cycles
L2C TOTAL     ACCESS:    6385182  HIT:    5248036  MISS:    1137146
L2C LOAD      ACCESS:    1603293  HIT:    1369959  MISS:     233334
L2C RFO       ACCESS:      93270  HIT:      49059  MISS:      44211
L2C PREFETCH  ACCESS:    4423289  HIT:    3564841  MISS:     858448
L2C WRITEBACK ACCESS:     265330  HIT:     264177  MISS:       1153
L2C PREFETCH  REQUESTED:    5637898  ISSUED:    5635107  USEFUL:      22781  USELESS:     836967
L2C AVERAGE MISS LATENCY: 45.7895 cycles
LLC TOTAL     ACCESS:    2351445  HIT:    2223648  MISS:     127797
LLC LOAD      ACCESS:     233265  HIT:     216054  MISS:      17211
LLC RFO       ACCESS:      44207  HIT:      34235  MISS:       9972
LLC PREFETCH  ACCESS:    1925095  HIT:    1824603  MISS:     100492
LLC WRITEBACK ACCESS:     148878  HIT:     148756  MISS:        122
LLC PREFETCH  REQUESTED:          0  ISSUED:          0  USEFUL:       9948  USELESS:      91378
LLC AVERAGE MISS LATENCY: 175.815 cycles
Major fault: 0 Minor fault: 5608
CPU 0 L1D next line prefetcher final stats

DRAM Statistics
 CHANNEL 0
 RQ ROW_BUFFER_HIT:      19044  ROW_BUFFER_MISS:     108615
 DBUS_CONGESTED:      56695
 WQ ROW_BUFFER_HIT:      10141  ROW_BUFFER_MISS:      44337  FULL:          0

 AVG_CONGESTED_CYCLE: 5

CPU 0 Branch Prediction Accuracy: 99.5528% MPKI: 0.89798 Average ROB Occupancy at Mispredict: 131.346

Branch types
NOT_BRANCH: 39958787 79.9176%
BRANCH_DIRECT_JUMP: 449946 0.899892%
BRANCH_INDIRECT: 140210 0.28042%
BRANCH_CONDITIONAL: 7679677 15.3594%
BRANCH_DIRECT_CALL: 701578 1.40316%
BRANCH_INDIRECT_CALL: 168971 0.337942%
BRANCH_RETURN: 900560 1.80112%
BRANCH_OTHER: 0 0%

