Initialize SIGNATURE TABLE
ST_SET: 1
ST_WAY: 256
ST_TAG_BIT: 16
ST_TAG_MASK: ffff

Initialize PATTERN TABLE
PT_SET: 512
PT_WAY: 4
SIG_DELTA_BIT: 7
C_SIG_BIT: 4
C_DELTA_BIT: 4

Initialize PREFETCH FILTER
FILTER_SET: 1024

*** ChampSim Multicore Out-of-Order Simulator ***

Warmup Instructions: 50000000
Simulation Instructions: 50000000
Number of CPUs: 1
LLC sets: 2048
LLC ways: 16
Off-chip DRAM Size: 4096 MB Channels: 1 Width: 64-bit Data Rate: 3200 MT/s

CPU 0 runs /home/tapatil/CSE240C/SA1/ChampSim-master/ipc1_public/server_013.champsimtrace.xz
CPU 0 EPI prefetcher
CPU 0 L1D next line prefetcher
Heartbeat CPU 0 instructions: 10000000 cycles: 3214986 heartbeat IPC: 3.11043 cumulative IPC: 3.11043 (Simulation time: 0 hr 0 min 37 sec) 
Heartbeat CPU 0 instructions: 20000001 cycles: 6419517 heartbeat IPC: 3.12058 cumulative IPC: 3.1155 (Simulation time: 0 hr 1 min 15 sec) 
Heartbeat CPU 0 instructions: 30000002 cycles: 9627312 heartbeat IPC: 3.11741 cumulative IPC: 3.11613 (Simulation time: 0 hr 1 min 52 sec) 
Heartbeat CPU 0 instructions: 40000002 cycles: 12830856 heartbeat IPC: 3.12154 cumulative IPC: 3.11749 (Simulation time: 0 hr 2 min 30 sec) 
Heartbeat CPU 0 instructions: 50000000 cycles: 16034311 heartbeat IPC: 3.12163 cumulative IPC: 3.11831 (Simulation time: 0 hr 3 min 8 sec) 

Warmup complete CPU 0 instructions: 50000004 cycles: 16034312 (Simulation time: 0 hr 3 min 8 sec) 

Heartbeat CPU 0 instructions: 60000000 cycles: 23585267 heartbeat IPC: 1.32434 cumulative IPC: 1.32434 (Simulation time: 0 hr 3 min 47 sec) 
Heartbeat CPU 0 instructions: 70000002 cycles: 31291162 heartbeat IPC: 1.29771 cumulative IPC: 1.31089 (Simulation time: 0 hr 4 min 24 sec) 
Heartbeat CPU 0 instructions: 80000003 cycles: 38484201 heartbeat IPC: 1.39023 cumulative IPC: 1.33631 (Simulation time: 0 hr 5 min 0 sec) 
Heartbeat CPU 0 instructions: 90000003 cycles: 45850755 heartbeat IPC: 1.35749 cumulative IPC: 1.34154 (Simulation time: 0 hr 5 min 37 sec) 
Heartbeat CPU 0 instructions: 100000003 cycles: 53232036 heartbeat IPC: 1.35478 cumulative IPC: 1.34417 (Simulation time: 0 hr 6 min 14 sec) 
Finished CPU 0 instructions: 50000003 cycles: 37197725 cumulative IPC: 1.34417 (Simulation time: 0 hr 6 min 14 sec) 

ChampSim completed all CPUs

Region of Interest Statistics

CPU 0 cumulative IPC: 1.34417 instructions: 50000003 cycles: 37197725
L1D TOTAL     ACCESS:   17300745  HIT:   16234322  MISS:    1066423
L1D LOAD      ACCESS:    6305577  HIT:    5805593  MISS:     499984
L1D RFO       ACCESS:    4926810  HIT:    4846701  MISS:      80109
L1D PREFETCH  ACCESS:    6068358  HIT:    5582028  MISS:     486330
L1D WRITEBACK ACCESS:          0  HIT:          0  MISS:          0
L1D PREFETCH  REQUESTED:    6339887  ISSUED:    6245590  USEFUL:     134760  USELESS:     351580
L1D AVERAGE MISS LATENCY: 42.3064 cycles
L1I TOTAL     ACCESS:   33267315  HIT:   31338608  MISS:    1928707
L1I LOAD      ACCESS:    8700114  HIT:    8617986  MISS:      82128
L1I RFO       ACCESS:          0  HIT:          0  MISS:          0
L1I PREFETCH  ACCESS:   24567201  HIT:   22720622  MISS:    1846579
L1I WRITEBACK ACCESS:          0  HIT:          0  MISS:          0
L1I PREFETCH  REQUESTED:   33151378  ISSUED:   33151378  USEFUL:    1365980  USELESS:     480584
L1I AVERAGE MISS LATENCY: 33.8585 cycles
L2C TOTAL     ACCESS:    3856614  HIT:    2476398  MISS:    1380216
L2C LOAD      ACCESS:     530120  HIT:     246154  MISS:     283966
L2C RFO       ACCESS:      78813  HIT:      30505  MISS:      48308
L2C PREFETCH  ACCESS:    2971898  HIT:    1926025  MISS:    1045873
L2C WRITEBACK ACCESS:     275783  HIT:     273714  MISS:       2069
L2C PREFETCH  REQUESTED:    3984336  ISSUED:    3976470  USEFUL:      32191  USELESS:    1012996
L2C AVERAGE MISS LATENCY: 47.7674 cycles
LLC TOTAL     ACCESS:    2628749  HIT:    2452175  MISS:     176574
LLC LOAD      ACCESS:     277503  HIT:     254874  MISS:      22629
LLC RFO       ACCESS:      48297  HIT:      38235  MISS:      10062
LLC PREFETCH  ACCESS:    2128837  HIT:    1985314  MISS:     143523
LLC WRITEBACK ACCESS:     174112  HIT:     173752  MISS:        360
LLC PREFETCH  REQUESTED:          0  ISSUED:          0  USEFUL:      11820  USELESS:     129816
LLC AVERAGE MISS LATENCY: 177.109 cycles
Major fault: 0 Minor fault: 6207
CPU 0 L1I EPI prefetcher final stats
CPU 0 L1D next line prefetcher final stats

DRAM Statistics
 CHANNEL 0
 RQ ROW_BUFFER_HIT:      31062  ROW_BUFFER_MISS:     145138
 DBUS_CONGESTED:      81991
 WQ ROW_BUFFER_HIT:      12280  ROW_BUFFER_MISS:      51448  FULL:          0

 AVG_CONGESTED_CYCLE: 5

CPU 0 Branch Prediction Accuracy: 99.4114% MPKI: 1.0933 Average ROB Occupancy at Mispredict: 126.827

Branch types
NOT_BRANCH: 40713270 81.4265%
BRANCH_DIRECT_JUMP: 463701 0.927402%
BRANCH_INDIRECT: 146544 0.293088%
BRANCH_CONDITIONAL: 6981955 13.9639%
BRANCH_DIRECT_CALL: 665005 1.33001%
BRANCH_INDIRECT_CALL: 165152 0.330304%
BRANCH_RETURN: 864314 1.72863%
BRANCH_OTHER: 0 0%

