Initialize SIGNATURE TABLE
ST_SET: 1
ST_WAY: 256
ST_TAG_BIT: 16
ST_TAG_MASK: ffff

Initialize PATTERN TABLE
PT_SET: 512
PT_WAY: 4
SIG_DELTA_BIT: 7
C_SIG_BIT: 4
C_DELTA_BIT: 4

Initialize PREFETCH FILTER
FILTER_SET: 1024

*** ChampSim Multicore Out-of-Order Simulator ***

Warmup Instructions: 50000000
Simulation Instructions: 50000000
Number of CPUs: 1
LLC sets: 2048
LLC ways: 16
Off-chip DRAM Size: 4096 MB Channels: 1 Width: 64-bit Data Rate: 3200 MT/s

CPU 0 runs /home/tapatil/CSE240C/SA1/ChampSim-master/ipc1_public/server_010.champsimtrace.xz
CPU 0 EPI prefetcher
CPU 0 L1D next line prefetcher
Heartbeat CPU 0 instructions: 10000000 cycles: 3198977 heartbeat IPC: 3.126 cumulative IPC: 3.126 (Simulation time: 0 hr 0 min 37 sec) 
Heartbeat CPU 0 instructions: 20000002 cycles: 6394082 heartbeat IPC: 3.12979 cumulative IPC: 3.12789 (Simulation time: 0 hr 1 min 15 sec) 
Heartbeat CPU 0 instructions: 30000001 cycles: 9591640 heartbeat IPC: 3.12739 cumulative IPC: 3.12772 (Simulation time: 0 hr 1 min 53 sec) 
Heartbeat CPU 0 instructions: 40000000 cycles: 12786246 heartbeat IPC: 3.13028 cumulative IPC: 3.12836 (Simulation time: 0 hr 2 min 31 sec) 
Heartbeat CPU 0 instructions: 50000003 cycles: 15986250 heartbeat IPC: 3.125 cumulative IPC: 3.12769 (Simulation time: 0 hr 3 min 9 sec) 

Warmup complete CPU 0 instructions: 50000003 cycles: 15986250 (Simulation time: 0 hr 3 min 9 sec) 

Heartbeat CPU 0 instructions: 60000001 cycles: 23080925 heartbeat IPC: 1.40951 cumulative IPC: 1.40951 (Simulation time: 0 hr 3 min 47 sec) 
Heartbeat CPU 0 instructions: 70000000 cycles: 30207620 heartbeat IPC: 1.40317 cumulative IPC: 1.40633 (Simulation time: 0 hr 4 min 25 sec) 
Heartbeat CPU 0 instructions: 80000003 cycles: 37381832 heartbeat IPC: 1.39388 cumulative IPC: 1.40216 (Simulation time: 0 hr 5 min 3 sec) 
Heartbeat CPU 0 instructions: 90000002 cycles: 44330843 heartbeat IPC: 1.43905 cumulative IPC: 1.4112 (Simulation time: 0 hr 5 min 40 sec) 
Heartbeat CPU 0 instructions: 100000003 cycles: 64891857 heartbeat IPC: 0.486357 cumulative IPC: 1.02238 (Simulation time: 0 hr 6 min 40 sec) 
Finished CPU 0 instructions: 50000000 cycles: 48905607 cumulative IPC: 1.02238 (Simulation time: 0 hr 6 min 40 sec) 

ChampSim completed all CPUs

Region of Interest Statistics

CPU 0 cumulative IPC: 1.02238 instructions: 50000000 cycles: 48905607
L1D TOTAL     ACCESS:   19858659  HIT:   16633540  MISS:    3225119
L1D LOAD      ACCESS:    7684869  HIT:    6091500  MISS:    1593369
L1D RFO       ACCESS:    4711322  HIT:    4617055  MISS:      94267
L1D PREFETCH  ACCESS:    7462468  HIT:    5924985  MISS:    1537483
L1D WRITEBACK ACCESS:          0  HIT:          0  MISS:          0
L1D PREFETCH  REQUESTED:    7717229  ISSUED:    7620462  USEFUL:     116968  USELESS:    1420486
L1D AVERAGE MISS LATENCY: 22.6451 cycles
L1I TOTAL     ACCESS:   38504222  HIT:   36779605  MISS:    1724617
L1I LOAD      ACCESS:    9975741  HIT:    9931192  MISS:      44549
L1I RFO       ACCESS:          0  HIT:          0  MISS:          0
L1I PREFETCH  ACCESS:   28528481  HIT:   26848413  MISS:    1680068
L1I WRITEBACK ACCESS:          0  HIT:          0  MISS:          0
L1I PREFETCH  REQUESTED:   38870691  ISSUED:   38870691  USEFUL:    1190117  USELESS:     489965
L1I AVERAGE MISS LATENCY: 32.0496 cycles
L2C TOTAL     ACCESS:    6361843  HIT:    5219140  MISS:    1142703
L2C LOAD      ACCESS:    1594270  HIT:    1369328  MISS:     224942
L2C RFO       ACCESS:      93265  HIT:      49057  MISS:      44208
L2C PREFETCH  ACCESS:    4408961  HIT:    3536656  MISS:     872305
L2C WRITEBACK ACCESS:     265347  HIT:     264099  MISS:       1248
L2C PREFETCH  REQUESTED:    6344644  ISSUED:    6337928  USEFUL:      22813  USELESS:     850240
L2C AVERAGE MISS LATENCY: 46.6359 cycles
LLC TOTAL     ACCESS:    2420622  HIT:    2293701  MISS:     126921
LLC LOAD      ACCESS:     224816  HIT:     209006  MISS:      15810
LLC RFO       ACCESS:      44200  HIT:      35792  MISS:       8408
LLC PREFETCH  ACCESS:    2002102  HIT:    1899709  MISS:     102393
LLC WRITEBACK ACCESS:     149504  HIT:     149194  MISS:        310
LLC PREFETCH  REQUESTED:          0  ISSUED:          0  USEFUL:       9162  USELESS:      93284
LLC AVERAGE MISS LATENCY: 177.836 cycles
Major fault: 0 Minor fault: 5605
CPU 0 L1I EPI prefetcher final stats
CPU 0 L1D next line prefetcher final stats

DRAM Statistics
 CHANNEL 0
 RQ ROW_BUFFER_HIT:      20252  ROW_BUFFER_MISS:     106355
 DBUS_CONGESTED:      59754
 WQ ROW_BUFFER_HIT:       9560  ROW_BUFFER_MISS:      43783  FULL:          0

 AVG_CONGESTED_CYCLE: 5

CPU 0 Branch Prediction Accuracy: 99.5528% MPKI: 0.89798 Average ROB Occupancy at Mispredict: 132.28

Branch types
NOT_BRANCH: 39958794 79.9176%
BRANCH_DIRECT_JUMP: 449946 0.899892%
BRANCH_INDIRECT: 140210 0.28042%
BRANCH_CONDITIONAL: 7679677 15.3594%
BRANCH_DIRECT_CALL: 701578 1.40316%
BRANCH_INDIRECT_CALL: 168971 0.337942%
BRANCH_RETURN: 900560 1.80112%
BRANCH_OTHER: 0 0%

