Initialize SIGNATURE TABLE
ST_SET: 1
ST_WAY: 256
ST_TAG_BIT: 16
ST_TAG_MASK: ffff

Initialize PATTERN TABLE
PT_SET: 512
PT_WAY: 4
SIG_DELTA_BIT: 7
C_SIG_BIT: 4
C_DELTA_BIT: 4

Initialize PREFETCH FILTER
FILTER_SET: 1024

*** ChampSim Multicore Out-of-Order Simulator ***

Warmup Instructions: 50000000
Simulation Instructions: 50000000
Number of CPUs: 1
LLC sets: 2048
LLC ways: 16
Off-chip DRAM Size: 4096 MB Channels: 1 Width: 64-bit Data Rate: 3200 MT/s

CPU 0 runs /home/tapatil/CSE240C/SA1/ChampSim-master/ipc1_public/server_030.champsimtrace.xz
L1I D-JOLT instruction prefetcher has been constructed!
CPU 0 L1D next line prefetcher
Heartbeat CPU 0 instructions: 10000003 cycles: 3507841 heartbeat IPC: 2.85076 cumulative IPC: 2.85076 (Simulation time: 0 hr 0 min 34 sec) 
Heartbeat CPU 0 instructions: 20000003 cycles: 7014426 heartbeat IPC: 2.85178 cumulative IPC: 2.85127 (Simulation time: 0 hr 1 min 8 sec) 
Heartbeat CPU 0 instructions: 30000000 cycles: 10522337 heartbeat IPC: 2.8507 cumulative IPC: 2.85108 (Simulation time: 0 hr 1 min 41 sec) 
Heartbeat CPU 0 instructions: 40000002 cycles: 14030928 heartbeat IPC: 2.85015 cumulative IPC: 2.85085 (Simulation time: 0 hr 2 min 15 sec) 
Heartbeat CPU 0 instructions: 50000002 cycles: 17542330 heartbeat IPC: 2.84787 cumulative IPC: 2.85025 (Simulation time: 0 hr 2 min 49 sec) 

Warmup complete CPU 0 instructions: 50000002 cycles: 17542330 (Simulation time: 0 hr 2 min 49 sec) 

Heartbeat CPU 0 instructions: 60000000 cycles: 24612928 heartbeat IPC: 1.41431 cumulative IPC: 1.41431 (Simulation time: 0 hr 3 min 25 sec) 
Heartbeat CPU 0 instructions: 70000000 cycles: 31684274 heartbeat IPC: 1.41416 cumulative IPC: 1.41423 (Simulation time: 0 hr 4 min 0 sec) 
Heartbeat CPU 0 instructions: 80000001 cycles: 38751245 heartbeat IPC: 1.41503 cumulative IPC: 1.4145 (Simulation time: 0 hr 4 min 36 sec) 
*** Reached end of trace for Core: 0 Repeating trace: /home/tapatil/CSE240C/SA1/ChampSim-master/ipc1_public/server_030.champsimtrace.xz
Heartbeat CPU 0 instructions: 90000002 cycles: 45813024 heartbeat IPC: 1.41607 cumulative IPC: 1.41489 (Simulation time: 0 hr 5 min 12 sec) 
Heartbeat CPU 0 instructions: 100000002 cycles: 52878415 heartbeat IPC: 1.41535 cumulative IPC: 1.41498 (Simulation time: 0 hr 5 min 48 sec) 
Finished CPU 0 instructions: 50000000 cycles: 35336085 cumulative IPC: 1.41498 (Simulation time: 0 hr 5 min 48 sec) 

ChampSim completed all CPUs

Region of Interest Statistics

CPU 0 cumulative IPC: 1.41498 instructions: 50000000 cycles: 35336085
L1D TOTAL     ACCESS:   19143197  HIT:   17067283  MISS:    2075914
L1D LOAD      ACCESS:    6761348  HIT:    5707451  MISS:    1053897
L1D RFO       ACCESS:    6168400  HIT:    5881832  MISS:     286568
L1D PREFETCH  ACCESS:    6213449  HIT:    5478000  MISS:     735449
L1D WRITEBACK ACCESS:          0  HIT:          0  MISS:          0
L1D PREFETCH  REQUESTED:    6814946  ISSUED:    6680697  USEFUL:     179985  USELESS:     555556
L1D AVERAGE MISS LATENCY: 19.2311 cycles
L1I TOTAL     ACCESS:   16736516  HIT:   13304045  MISS:    3432471
L1I LOAD      ACCESS:    9827401  HIT:    9779731  MISS:      47670
L1I RFO       ACCESS:          0  HIT:          0  MISS:          0
L1I PREFETCH  ACCESS:    6909115  HIT:    3524314  MISS:    3384801
L1I WRITEBACK ACCESS:          0  HIT:          0  MISS:          0
L1I PREFETCH  REQUESTED:    7391511  ISSUED:    7262439  USEFUL:    2945218  USELESS:     439621
L1I AVERAGE MISS LATENCY: 19.6997 cycles
L2C TOTAL     ACCESS:    7795487  HIT:    6897570  MISS:     897917
L2C LOAD      ACCESS:     928708  HIT:     782511  MISS:     146197
L2C RFO       ACCESS:     283593  HIT:     219969  MISS:      63624
L2C PREFETCH  ACCESS:    5967645  HIT:    5284279  MISS:     683366
L2C WRITEBACK ACCESS:     615541  HIT:     610811  MISS:       4730
L2C PREFETCH  REQUESTED:    5627911  ISSUED:    5622404  USEFUL:      10380  USELESS:     672848
L2C AVERAGE MISS LATENCY: 33.8816 cycles
LLC TOTAL     ACCESS:    2380011  HIT:    2359455  MISS:      20556
LLC LOAD      ACCESS:     145976  HIT:     143095  MISS:       2881
LLC RFO       ACCESS:      63601  HIT:      61795  MISS:       1806
LLC PREFETCH  ACCESS:    2048661  HIT:    2032929  MISS:      15732
LLC WRITEBACK ACCESS:     121773  HIT:     121636  MISS:        137
LLC PREFETCH  REQUESTED:          0  ISSUED:          0  USEFUL:        851  USELESS:      14867
LLC AVERAGE MISS LATENCY: 145.802 cycles
Major fault: 0 Minor fault: 2042
CPU 0 L1D next line prefetcher final stats

DRAM Statistics
 CHANNEL 0
 RQ ROW_BUFFER_HIT:       6552  ROW_BUFFER_MISS:      13867
 DBUS_CONGESTED:       6109
 WQ ROW_BUFFER_HIT:        140  ROW_BUFFER_MISS:       2248  FULL:          0

 AVG_CONGESTED_CYCLE: 5

CPU 0 Branch Prediction Accuracy: 99.8445% MPKI: 0.29148 Average ROB Occupancy at Mispredict: 167.534

Branch types
NOT_BRANCH: 40628075 81.2562%
BRANCH_DIRECT_JUMP: 490941 0.981882%
BRANCH_INDIRECT: 175854 0.351708%
BRANCH_CONDITIONAL: 6321415 12.6428%
BRANCH_DIRECT_CALL: 1002072 2.00414%
BRANCH_INDIRECT_CALL: 189783 0.379566%
BRANCH_RETURN: 1191851 2.3837%
BRANCH_OTHER: 0 0%

