Initialize SIGNATURE TABLE
ST_SET: 1
ST_WAY: 256
ST_TAG_BIT: 16
ST_TAG_MASK: ffff

Initialize PATTERN TABLE
PT_SET: 512
PT_WAY: 4
SIG_DELTA_BIT: 7
C_SIG_BIT: 4
C_DELTA_BIT: 4

Initialize PREFETCH FILTER
FILTER_SET: 1024

*** ChampSim Multicore Out-of-Order Simulator ***

Warmup Instructions: 50000000
Simulation Instructions: 50000000
Number of CPUs: 1
LLC sets: 2048
LLC ways: 16
Off-chip DRAM Size: 4096 MB Channels: 1 Width: 64-bit Data Rate: 3200 MT/s

CPU 0 runs /home/tapatil/CSE240C/SA1/ChampSim-master/ipc1_public/server_014.champsimtrace.xz
L1I D-JOLT instruction prefetcher has been constructed!
CPU 0 L1D next line prefetcher
Heartbeat CPU 0 instructions: 10000003 cycles: 3519561 heartbeat IPC: 2.84126 cumulative IPC: 2.84126 (Simulation time: 0 hr 0 min 33 sec) 
Heartbeat CPU 0 instructions: 20000000 cycles: 7106429 heartbeat IPC: 2.78795 cumulative IPC: 2.81435 (Simulation time: 0 hr 1 min 7 sec) 
Heartbeat CPU 0 instructions: 30000001 cycles: 10647934 heartbeat IPC: 2.82366 cumulative IPC: 2.81745 (Simulation time: 0 hr 1 min 40 sec) 
Heartbeat CPU 0 instructions: 40000003 cycles: 14196156 heartbeat IPC: 2.81831 cumulative IPC: 2.81766 (Simulation time: 0 hr 2 min 15 sec) 
Heartbeat CPU 0 instructions: 50000000 cycles: 17744830 heartbeat IPC: 2.81795 cumulative IPC: 2.81772 (Simulation time: 0 hr 2 min 49 sec) 

Warmup complete CPU 0 instructions: 50000001 cycles: 17744831 (Simulation time: 0 hr 2 min 49 sec) 

Heartbeat CPU 0 instructions: 60000000 cycles: 24031538 heartbeat IPC: 1.59066 cumulative IPC: 1.59066 (Simulation time: 0 hr 3 min 25 sec) 
Heartbeat CPU 0 instructions: 70000003 cycles: 30323509 heartbeat IPC: 1.58933 cumulative IPC: 1.58999 (Simulation time: 0 hr 4 min 1 sec) 
*** Reached end of trace for Core: 0 Repeating trace: /home/tapatil/CSE240C/SA1/ChampSim-master/ipc1_public/server_014.champsimtrace.xz
Heartbeat CPU 0 instructions: 80000001 cycles: 36894799 heartbeat IPC: 1.52177 cumulative IPC: 1.56658 (Simulation time: 0 hr 4 min 37 sec) 
Heartbeat CPU 0 instructions: 90000003 cycles: 44382493 heartbeat IPC: 1.33552 cumulative IPC: 1.50163 (Simulation time: 0 hr 5 min 13 sec) 
Heartbeat CPU 0 instructions: 100000001 cycles: 50867954 heartbeat IPC: 1.54191 cumulative IPC: 1.50952 (Simulation time: 0 hr 5 min 49 sec) 
Finished CPU 0 instructions: 50000000 cycles: 33123123 cumulative IPC: 1.50952 (Simulation time: 0 hr 5 min 49 sec) 

ChampSim completed all CPUs

Region of Interest Statistics

CPU 0 cumulative IPC: 1.50952 instructions: 50000000 cycles: 33123123
L1D TOTAL     ACCESS:   21625537  HIT:   21554680  MISS:      70857
L1D LOAD      ACCESS:    6672678  HIT:    6645768  MISS:      26910
L1D RFO       ACCESS:    8412883  HIT:    8380824  MISS:      32059
L1D PREFETCH  ACCESS:    6539976  HIT:    6528088  MISS:      11888
L1D WRITEBACK ACCESS:          0  HIT:          0  MISS:          0
L1D PREFETCH  REQUESTED:    6676995  ISSUED:    6567594  USEFUL:       3331  USELESS:       8557
L1D AVERAGE MISS LATENCY: 229.138 cycles
L1I TOTAL     ACCESS:   19899651  HIT:   15678595  MISS:    4221056
L1I LOAD      ACCESS:    9806752  HIT:    9783566  MISS:      23186
L1I RFO       ACCESS:          0  HIT:          0  MISS:          0
L1I PREFETCH  ACCESS:   10092899  HIT:    5895029  MISS:    4197870
L1I WRITEBACK ACCESS:          0  HIT:          0  MISS:          0
L1I PREFETCH  REQUESTED:   10539185  ISSUED:   10423257  USEFUL:    2774744  USELESS:    1423099
L1I AVERAGE MISS LATENCY: 14.884 cycles
L2C TOTAL     ACCESS:    6081635  HIT:    6009962  MISS:      71673
L2C LOAD      ACCESS:      43678  HIT:      24472  MISS:      19206
L2C RFO       ACCESS:      32016  HIT:       1063  MISS:      30953
L2C PREFETCH  ACCESS:    5967574  HIT:    5946070  MISS:      21504
L2C WRITEBACK ACCESS:      38367  HIT:      38357  MISS:         10
L2C PREFETCH  REQUESTED:    4602372  ISSUED:    4595729  USEFUL:       1645  USELESS:      19701
L2C AVERAGE MISS LATENCY: 257.686 cycles
LLC TOTAL     ACCESS:     916220  HIT:     850715  MISS:      65505
LLC LOAD      ACCESS:      17994  HIT:       5424  MISS:      12570
LLC RFO       ACCESS:      30953  HIT:       4606  MISS:      26347
LLC PREFETCH  ACCESS:     832440  HIT:     805963  MISS:      26477
LLC WRITEBACK ACCESS:      34833  HIT:      34722  MISS:        111
LLC PREFETCH  REQUESTED:          0  ISSUED:          0  USEFUL:       4622  USELESS:      22897
LLC AVERAGE MISS LATENCY: 312.482 cycles
Major fault: 0 Minor fault: 1917
CPU 0 L1D next line prefetcher final stats

DRAM Statistics
 CHANNEL 0
 RQ ROW_BUFFER_HIT:      28624  ROW_BUFFER_MISS:      36764
 DBUS_CONGESTED:      65955
 WQ ROW_BUFFER_HIT:       8276  ROW_BUFFER_MISS:      24177  FULL:          0

 AVG_CONGESTED_CYCLE: 6

CPU 0 Branch Prediction Accuracy: 99.7719% MPKI: 0.38824 Average ROB Occupancy at Mispredict: 155.867

Branch types
NOT_BRANCH: 41489014 82.978%
BRANCH_DIRECT_JUMP: 449417 0.898834%
BRANCH_INDIRECT: 2330 0.00466%
BRANCH_CONDITIONAL: 5470016 10.94%
BRANCH_DIRECT_CALL: 1172188 2.34438%
BRANCH_INDIRECT_CALL: 122383 0.244766%
BRANCH_RETURN: 1294554 2.58911%
BRANCH_OTHER: 0 0%

