Initialize SIGNATURE TABLE
ST_SET: 1
ST_WAY: 256
ST_TAG_BIT: 16
ST_TAG_MASK: ffff

Initialize PATTERN TABLE
PT_SET: 512
PT_WAY: 4
SIG_DELTA_BIT: 7
C_SIG_BIT: 4
C_DELTA_BIT: 4

Initialize PREFETCH FILTER
FILTER_SET: 1024

*** ChampSim Multicore Out-of-Order Simulator ***

Warmup Instructions: 50000000
Simulation Instructions: 50000000
Number of CPUs: 1
LLC sets: 2048
LLC ways: 16
Off-chip DRAM Size: 4096 MB Channels: 1 Width: 64-bit Data Rate: 3200 MT/s

CPU 0 runs /home/tapatil/CSE240C/SA1/ChampSim-master/ipc1_public/server_021.champsimtrace.xz
CPU 0 EPI prefetcher
CPU 0 L1D next line prefetcher
Heartbeat CPU 0 instructions: 10000000 cycles: 3622426 heartbeat IPC: 2.76058 cumulative IPC: 2.76058 (Simulation time: 0 hr 0 min 39 sec) 
Heartbeat CPU 0 instructions: 20000000 cycles: 7239753 heartbeat IPC: 2.76447 cumulative IPC: 2.76253 (Simulation time: 0 hr 1 min 18 sec) 
Heartbeat CPU 0 instructions: 30000003 cycles: 10887504 heartbeat IPC: 2.74142 cumulative IPC: 2.75545 (Simulation time: 0 hr 1 min 57 sec) 
Heartbeat CPU 0 instructions: 40000001 cycles: 14499947 heartbeat IPC: 2.76821 cumulative IPC: 2.75863 (Simulation time: 0 hr 2 min 36 sec) 
Heartbeat CPU 0 instructions: 50000002 cycles: 18134675 heartbeat IPC: 2.75124 cumulative IPC: 2.75715 (Simulation time: 0 hr 3 min 15 sec) 

Warmup complete CPU 0 instructions: 50000002 cycles: 18134675 (Simulation time: 0 hr 3 min 15 sec) 

Heartbeat CPU 0 instructions: 60000001 cycles: 34832629 heartbeat IPC: 0.598876 cumulative IPC: 0.598876 (Simulation time: 0 hr 4 min 10 sec) 
Heartbeat CPU 0 instructions: 70000002 cycles: 51739871 heartbeat IPC: 0.591463 cumulative IPC: 0.595146 (Simulation time: 0 hr 5 min 4 sec) 
Heartbeat CPU 0 instructions: 80000001 cycles: 68384318 heartbeat IPC: 0.600801 cumulative IPC: 0.597019 (Simulation time: 0 hr 5 min 59 sec) 
Heartbeat CPU 0 instructions: 90000001 cycles: 85240168 heartbeat IPC: 0.593266 cumulative IPC: 0.596076 (Simulation time: 0 hr 6 min 54 sec) 
Heartbeat CPU 0 instructions: 100000002 cycles: 101937569 heartbeat IPC: 0.598896 cumulative IPC: 0.596638 (Simulation time: 0 hr 7 min 49 sec) 
Finished CPU 0 instructions: 50000000 cycles: 83802894 cumulative IPC: 0.596638 (Simulation time: 0 hr 7 min 49 sec) 

ChampSim completed all CPUs

Region of Interest Statistics

CPU 0 cumulative IPC: 0.596638 instructions: 50000000 cycles: 83802894
L1D TOTAL     ACCESS:   18695900  HIT:   16492377  MISS:    2203523
L1D LOAD      ACCESS:    7057146  HIT:    6354804  MISS:     702342
L1D RFO       ACCESS:    5874428  HIT:    4898910  MISS:     975518
L1D PREFETCH  ACCESS:    5764326  HIT:    5238663  MISS:     525663
L1D WRITEBACK ACCESS:          0  HIT:          0  MISS:          0
L1D PREFETCH  REQUESTED:    7099706  ISSUED:    6892815  USEFUL:     204377  USELESS:     321280
L1D AVERAGE MISS LATENCY: 177.249 cycles
L1I TOTAL     ACCESS:   30947545  HIT:   28490911  MISS:    2456634
L1I LOAD      ACCESS:   10113953  HIT:   10089327  MISS:      24626
L1I RFO       ACCESS:          0  HIT:          0  MISS:          0
L1I PREFETCH  ACCESS:   20833592  HIT:   18401584  MISS:    2432008
L1I WRITEBACK ACCESS:          0  HIT:          0  MISS:          0
L1I PREFETCH  REQUESTED:   24298252  ISSUED:   24298252  USEFUL:    2336472  USELESS:      95503
L1I AVERAGE MISS LATENCY: 18.7446 cycles
L2C TOTAL     ACCESS:    6869497  HIT:    5008702  MISS:    1860795
L2C LOAD      ACCESS:     488682  HIT:     241555  MISS:     247127
L2C RFO       ACCESS:     974946  HIT:      21462  MISS:     953484
L2C PREFETCH  ACCESS:    4226017  HIT:    3568377  MISS:     657640
L2C WRITEBACK ACCESS:    1179852  HIT:    1177308  MISS:       2544
L2C PREFETCH  REQUESTED:    4072297  ISSUED:    4063862  USEFUL:      20742  USELESS:     636938
L2C AVERAGE MISS LATENCY: 215.492 cycles
LLC TOTAL     ACCESS:    4066060  HIT:    2666414  MISS:    1399646
LLC LOAD      ACCESS:     247040  HIT:     171688  MISS:      75352
LLC RFO       ACCESS:     953444  HIT:     142220  MISS:     811224
LLC PREFETCH  ACCESS:    1753520  HIT:    1242550  MISS:     510970
LLC WRITEBACK ACCESS:    1112056  HIT:    1109956  MISS:       2100
LLC PREFETCH  REQUESTED:          0  ISSUED:          0  USEFUL:      27694  USELESS:     481885
LLC AVERAGE MISS LATENCY: 286.829 cycles
Major fault: 0 Minor fault: 22291
CPU 0 L1I EPI prefetcher final stats
CPU 0 L1D next line prefetcher final stats

DRAM Statistics
 CHANNEL 0
 RQ ROW_BUFFER_HIT:     407297  ROW_BUFFER_MISS:     989938
 DBUS_CONGESTED:    1433630
 WQ ROW_BUFFER_HIT:     266501  ROW_BUFFER_MISS:     630827  FULL:          0

 AVG_CONGESTED_CYCLE: 6

CPU 0 Branch Prediction Accuracy: 99.8303% MPKI: 0.27836 Average ROB Occupancy at Mispredict: 227.01

Branch types
NOT_BRANCH: 41798544 83.5971%
BRANCH_DIRECT_JUMP: 445215 0.89043%
BRANCH_INDIRECT: 50481 0.100962%
BRANCH_CONDITIONAL: 5868244 11.7365%
BRANCH_DIRECT_CALL: 758228 1.51646%
BRANCH_INDIRECT_CALL: 160494 0.320988%
BRANCH_RETURN: 918718 1.83744%
BRANCH_OTHER: 0 0%

