Initialize SIGNATURE TABLE
ST_SET: 1
ST_WAY: 256
ST_TAG_BIT: 16
ST_TAG_MASK: ffff

Initialize PATTERN TABLE
PT_SET: 512
PT_WAY: 4
SIG_DELTA_BIT: 7
C_SIG_BIT: 4
C_DELTA_BIT: 4

Initialize PREFETCH FILTER
FILTER_SET: 1024

*** ChampSim Multicore Out-of-Order Simulator ***

Warmup Instructions: 50000000
Simulation Instructions: 50000000
Number of CPUs: 1
LLC sets: 2048
LLC ways: 16
Off-chip DRAM Size: 4096 MB Channels: 1 Width: 64-bit Data Rate: 3200 MT/s

CPU 0 runs /home/tapatil/CSE240C/SA1/ChampSim-master/ipc1_public/server_037.champsimtrace.xz
CPU 0 EPI prefetcher
CPU 0 L1D next line prefetcher
Heartbeat CPU 0 instructions: 10000001 cycles: 3319069 heartbeat IPC: 3.01289 cumulative IPC: 3.01289 (Simulation time: 0 hr 0 min 40 sec) 
Heartbeat CPU 0 instructions: 20000002 cycles: 6635603 heartbeat IPC: 3.0152 cumulative IPC: 3.01404 (Simulation time: 0 hr 1 min 21 sec) 
Heartbeat CPU 0 instructions: 30000003 cycles: 10000093 heartbeat IPC: 2.97222 cumulative IPC: 2.99997 (Simulation time: 0 hr 2 min 2 sec) 
Heartbeat CPU 0 instructions: 40000000 cycles: 13318887 heartbeat IPC: 3.01314 cumulative IPC: 3.00325 (Simulation time: 0 hr 2 min 43 sec) 
Heartbeat CPU 0 instructions: 50000003 cycles: 16637053 heartbeat IPC: 3.01371 cumulative IPC: 3.00534 (Simulation time: 0 hr 3 min 25 sec) 

Warmup complete CPU 0 instructions: 50000003 cycles: 16637053 (Simulation time: 0 hr 3 min 25 sec) 

Heartbeat CPU 0 instructions: 60000001 cycles: 23040320 heartbeat IPC: 1.5617 cumulative IPC: 1.5617 (Simulation time: 0 hr 4 min 9 sec) 
Heartbeat CPU 0 instructions: 70000000 cycles: 29530104 heartbeat IPC: 1.54088 cumulative IPC: 1.55122 (Simulation time: 0 hr 4 min 52 sec) 
Heartbeat CPU 0 instructions: 80000000 cycles: 35916511 heartbeat IPC: 1.56583 cumulative IPC: 1.55606 (Simulation time: 0 hr 5 min 36 sec) 
Heartbeat CPU 0 instructions: 90000002 cycles: 42324239 heartbeat IPC: 1.56062 cumulative IPC: 1.5572 (Simulation time: 0 hr 6 min 19 sec) 
*** Reached end of trace for Core: 0 Repeating trace: /home/tapatil/CSE240C/SA1/ChampSim-master/ipc1_public/server_037.champsimtrace.xz
Heartbeat CPU 0 instructions: 100000000 cycles: 48719559 heartbeat IPC: 1.56364 cumulative IPC: 1.55848 (Simulation time: 0 hr 7 min 4 sec) 
Finished CPU 0 instructions: 50000001 cycles: 32082507 cumulative IPC: 1.55848 (Simulation time: 0 hr 7 min 4 sec) 

ChampSim completed all CPUs

Region of Interest Statistics

CPU 0 cumulative IPC: 1.55848 instructions: 50000001 cycles: 32082507
L1D TOTAL     ACCESS:   18689071  HIT:   17711117  MISS:     977954
L1D LOAD      ACCESS:    6360531  HIT:    5869136  MISS:     491395
L1D RFO       ACCESS:    6205221  HIT:    6141197  MISS:      64024
L1D PREFETCH  ACCESS:    6123319  HIT:    5700784  MISS:     422535
L1D WRITEBACK ACCESS:          0  HIT:          0  MISS:          0
L1D PREFETCH  REQUESTED:    6396988  ISSUED:    6243922  USEFUL:     117438  USELESS:     305102
L1D AVERAGE MISS LATENCY: 29.0075 cycles
L1I TOTAL     ACCESS:   31689623  HIT:   27287102  MISS:    4402521
L1I LOAD      ACCESS:    9435680  HIT:    9420326  MISS:      15354
L1I RFO       ACCESS:          0  HIT:          0  MISS:          0
L1I PREFETCH  ACCESS:   22253943  HIT:   17866776  MISS:    4387167
L1I WRITEBACK ACCESS:          0  HIT:          0  MISS:          0
L1I PREFETCH  REQUESTED:   26357571  ISSUED:   26357571  USEFUL:    4020721  USELESS:     366489
L1I AVERAGE MISS LATENCY: 15.137 cycles
L2C TOTAL     ACCESS:    8093635  HIT:    7782504  MISS:     311131
L2C LOAD      ACCESS:     496532  HIT:     357977  MISS:     138555
L2C RFO       ACCESS:      63711  HIT:      36711  MISS:      27000
L2C PREFETCH  ACCESS:    7243894  HIT:    7099256  MISS:     144638
L2C WRITEBACK ACCESS:     289498  HIT:     288560  MISS:        938
L2C PREFETCH  REQUESTED:    7265843  ISSUED:    7242034  USEFUL:       6718  USELESS:     137784
L2C AVERAGE MISS LATENCY: 45.8858 cycles
LLC TOTAL     ACCESS:    1611372  HIT:    1555308  MISS:      56064
LLC LOAD      ACCESS:     138508  HIT:     125280  MISS:      13228
LLC RFO       ACCESS:      26998  HIT:      22246  MISS:       4752
LLC PREFETCH  ACCESS:    1308451  HIT:    1270996  MISS:      37455
LLC WRITEBACK ACCESS:     137415  HIT:     136786  MISS:        629
LLC PREFETCH  REQUESTED:          0  ISSUED:          0  USEFUL:       3833  USELESS:      33699
LLC AVERAGE MISS LATENCY: 166.991 cycles
Major fault: 0 Minor fault: 5653
CPU 0 L1I EPI prefetcher final stats
CPU 0 L1D next line prefetcher final stats

DRAM Statistics
 CHANNEL 0
 RQ ROW_BUFFER_HIT:       9141  ROW_BUFFER_MISS:      46293
 DBUS_CONGESTED:      23865
 WQ ROW_BUFFER_HIT:       1255  ROW_BUFFER_MISS:      10759  FULL:          0

 AVG_CONGESTED_CYCLE: 5

CPU 0 Branch Prediction Accuracy: 99.913% MPKI: 0.15656 Average ROB Occupancy at Mispredict: 227.139

Branch types
NOT_BRANCH: 41001720 82.0034%
BRANCH_DIRECT_JUMP: 541941 1.08388%
BRANCH_INDIRECT: 59716 0.119432%
BRANCH_CONDITIONAL: 5916852 11.8337%
BRANCH_DIRECT_CALL: 1005465 2.01093%
BRANCH_INDIRECT_CALL: 234433 0.468866%
BRANCH_RETURN: 1239877 2.47975%
BRANCH_OTHER: 0 0%

