Initialize SIGNATURE TABLE
ST_SET: 1
ST_WAY: 256
ST_TAG_BIT: 16
ST_TAG_MASK: ffff

Initialize PATTERN TABLE
PT_SET: 512
PT_WAY: 4
SIG_DELTA_BIT: 7
C_SIG_BIT: 4
C_DELTA_BIT: 4

Initialize PREFETCH FILTER
FILTER_SET: 1024

*** ChampSim Multicore Out-of-Order Simulator ***

Warmup Instructions: 50000000
Simulation Instructions: 50000000
Number of CPUs: 1
LLC sets: 2048
LLC ways: 16
Off-chip DRAM Size: 4096 MB Channels: 1 Width: 64-bit Data Rate: 3200 MT/s

CPU 0 runs /home/tapatil/CSE240C/SA1/ChampSim-master/ipc1_public/server_009.champsimtrace.xz
L1I D-JOLT instruction prefetcher has been constructed!
CPU 0 L1D next line prefetcher
Heartbeat CPU 0 instructions: 10000003 cycles: 3196144 heartbeat IPC: 3.12877 cumulative IPC: 3.12877 (Simulation time: 0 hr 0 min 31 sec) 
Heartbeat CPU 0 instructions: 20000001 cycles: 6385273 heartbeat IPC: 3.13565 cumulative IPC: 3.13221 (Simulation time: 0 hr 1 min 2 sec) 
Heartbeat CPU 0 instructions: 30000002 cycles: 9589431 heartbeat IPC: 3.12094 cumulative IPC: 3.12844 (Simulation time: 0 hr 1 min 33 sec) 
Heartbeat CPU 0 instructions: 40000003 cycles: 12789801 heartbeat IPC: 3.12464 cumulative IPC: 3.12749 (Simulation time: 0 hr 2 min 4 sec) 
Heartbeat CPU 0 instructions: 50000000 cycles: 16047011 heartbeat IPC: 3.07011 cumulative IPC: 3.11584 (Simulation time: 0 hr 2 min 35 sec) 

Warmup complete CPU 0 instructions: 50000004 cycles: 16047012 (Simulation time: 0 hr 2 min 35 sec) 

Heartbeat CPU 0 instructions: 60000002 cycles: 31708460 heartbeat IPC: 0.638511 cumulative IPC: 0.63851 (Simulation time: 0 hr 3 min 16 sec) 
Heartbeat CPU 0 instructions: 70000003 cycles: 52760533 heartbeat IPC: 0.475013 cumulative IPC: 0.544758 (Simulation time: 0 hr 4 min 7 sec) 
Heartbeat CPU 0 instructions: 80000000 cycles: 59907465 heartbeat IPC: 1.3992 cumulative IPC: 0.683987 (Simulation time: 0 hr 4 min 37 sec) 
Heartbeat CPU 0 instructions: 90000001 cycles: 67185520 heartbeat IPC: 1.37399 cumulative IPC: 0.782189 (Simulation time: 0 hr 5 min 7 sec) 
Heartbeat CPU 0 instructions: 100000003 cycles: 74339503 heartbeat IPC: 1.39782 cumulative IPC: 0.857743 (Simulation time: 0 hr 5 min 37 sec) 
Finished CPU 0 instructions: 50000003 cycles: 58292492 cumulative IPC: 0.857743 (Simulation time: 0 hr 5 min 37 sec) 

ChampSim completed all CPUs

Region of Interest Statistics

CPU 0 cumulative IPC: 0.857743 instructions: 50000003 cycles: 58292492
L1D TOTAL     ACCESS:   21611681  HIT:   17032229  MISS:    4579452
L1D LOAD      ACCESS:    8621742  HIT:    6341689  MISS:    2280053
L1D RFO       ACCESS:    4580616  HIT:    4476204  MISS:     104412
L1D PREFETCH  ACCESS:    8409323  HIT:    6214336  MISS:    2194987
L1D WRITEBACK ACCESS:          0  HIT:          0  MISS:          0
L1D PREFETCH  REQUESTED:    8653880  ISSUED:    8556853  USEFUL:     106513  USELESS:    2088472
L1D AVERAGE MISS LATENCY: 20.3951 cycles
L1I TOTAL     ACCESS:   17014660  HIT:   15475451  MISS:    1539209
L1I LOAD      ACCESS:   10780001  HIT:   10711797  MISS:      68204
L1I RFO       ACCESS:          0  HIT:          0  MISS:          0
L1I PREFETCH  ACCESS:    6234659  HIT:    4763654  MISS:    1471005
L1I WRITEBACK ACCESS:          0  HIT:          0  MISS:          0
L1I PREFETCH  REQUESTED:    6958300  ISSUED:    6536061  USEFUL:    1094635  USELESS:     376345
L1I AVERAGE MISS LATENCY: 31.1116 cycles
L2C TOTAL     ACCESS:    7851942  HIT:    6800233  MISS:    1051709
L2C LOAD      ACCESS:    2298206  HIT:    2076044  MISS:     222162
L2C RFO       ACCESS:     103495  HIT:      63451  MISS:      40044
L2C PREFETCH  ACCESS:    5193395  HIT:    4405284  MISS:     788111
L2C WRITEBACK ACCESS:     256846  HIT:     255454  MISS:       1392
L2C PREFETCH  REQUESTED:    6351345  ISSUED:    6348467  USEFUL:      22226  USELESS:     764762
L2C AVERAGE MISS LATENCY: 46.8973 cycles
LLC TOTAL     ACCESS:    2332737  HIT:    2197820  MISS:     134917
LLC LOAD      ACCESS:     221949  HIT:     201564  MISS:      20385
LLC RFO       ACCESS:      40037  HIT:      31642  MISS:       8395
LLC PREFETCH  ACCESS:    1934158  HIT:    1828260  MISS:     105898
LLC WRITEBACK ACCESS:     136593  HIT:     136354  MISS:        239
LLC PREFETCH  REQUESTED:          0  ISSUED:          0  USEFUL:      12001  USELESS:      92656
LLC AVERAGE MISS LATENCY: 173.107 cycles
Major fault: 0 Minor fault: 6365
CPU 0 L1D next line prefetcher final stats

DRAM Statistics
 CHANNEL 0
 RQ ROW_BUFFER_HIT:      26011  ROW_BUFFER_MISS:     108660
 DBUS_CONGESTED:      58171
 WQ ROW_BUFFER_HIT:       8646  ROW_BUFFER_MISS:      37166  FULL:          0

 AVG_CONGESTED_CYCLE: 5

CPU 0 Branch Prediction Accuracy: 99.4713% MPKI: 1.11484 Average ROB Occupancy at Mispredict: 119.7

Branch types
NOT_BRANCH: 39456615 78.9132%
BRANCH_DIRECT_JUMP: 445350 0.8907%
BRANCH_INDIRECT: 131149 0.262298%
BRANCH_CONDITIONAL: 8130196 16.2604%
BRANCH_DIRECT_CALL: 732485 1.46497%
BRANCH_INDIRECT_CALL: 172369 0.344738%
BRANCH_RETURN: 931558 1.86312%
BRANCH_OTHER: 0 0%

