Initialize SIGNATURE TABLE
ST_SET: 1
ST_WAY: 256
ST_TAG_BIT: 16
ST_TAG_MASK: ffff

Initialize PATTERN TABLE
PT_SET: 512
PT_WAY: 4
SIG_DELTA_BIT: 7
C_SIG_BIT: 4
C_DELTA_BIT: 4

Initialize PREFETCH FILTER
FILTER_SET: 1024

*** ChampSim Multicore Out-of-Order Simulator ***

Warmup Instructions: 50000000
Simulation Instructions: 50000000
Number of CPUs: 1
LLC sets: 2048
LLC ways: 16
Off-chip DRAM Size: 4096 MB Channels: 1 Width: 64-bit Data Rate: 3200 MT/s

CPU 0 runs /home/tapatil/CSE240C/SA1/ChampSim-master/ipc1_public/server_017.champsimtrace.xz
CPU 0 EPI prefetcher
CPU 0 L1D next line prefetcher
Heartbeat CPU 0 instructions: 10000001 cycles: 3621920 heartbeat IPC: 2.76097 cumulative IPC: 2.76097 (Simulation time: 0 hr 0 min 39 sec) 
Heartbeat CPU 0 instructions: 20000000 cycles: 7241834 heartbeat IPC: 2.7625 cumulative IPC: 2.76173 (Simulation time: 0 hr 1 min 18 sec) 
Heartbeat CPU 0 instructions: 30000002 cycles: 10869022 heartbeat IPC: 2.75696 cumulative IPC: 2.76014 (Simulation time: 0 hr 1 min 58 sec) 
Heartbeat CPU 0 instructions: 40000000 cycles: 14491362 heartbeat IPC: 2.76065 cumulative IPC: 2.76027 (Simulation time: 0 hr 2 min 38 sec) 
Heartbeat CPU 0 instructions: 50000001 cycles: 18124276 heartbeat IPC: 2.75261 cumulative IPC: 2.75873 (Simulation time: 0 hr 3 min 17 sec) 

Warmup complete CPU 0 instructions: 50000001 cycles: 18124276 (Simulation time: 0 hr 3 min 17 sec) 

Heartbeat CPU 0 instructions: 60000002 cycles: 35618981 heartbeat IPC: 0.571602 cumulative IPC: 0.571602 (Simulation time: 0 hr 4 min 11 sec) 
Heartbeat CPU 0 instructions: 70000002 cycles: 53279579 heartbeat IPC: 0.566232 cumulative IPC: 0.568904 (Simulation time: 0 hr 5 min 5 sec) 
Heartbeat CPU 0 instructions: 80000000 cycles: 70792404 heartbeat IPC: 0.57101 cumulative IPC: 0.569604 (Simulation time: 0 hr 6 min 0 sec) 
Heartbeat CPU 0 instructions: 90000002 cycles: 94006293 heartbeat IPC: 0.430777 cumulative IPC: 0.527134 (Simulation time: 0 hr 6 min 54 sec) 
Heartbeat CPU 0 instructions: 100000003 cycles: 113888073 heartbeat IPC: 0.502973 cumulative IPC: 0.522118 (Simulation time: 0 hr 7 min 49 sec) 
Finished CPU 0 instructions: 50000002 cycles: 95763797 cumulative IPC: 0.522118 (Simulation time: 0 hr 7 min 49 sec) 

ChampSim completed all CPUs

Region of Interest Statistics

CPU 0 cumulative IPC: 0.522118 instructions: 50000002 cycles: 95763797
L1D TOTAL     ACCESS:   18366965  HIT:   16201424  MISS:    2165541
L1D LOAD      ACCESS:    7022567  HIT:    6277342  MISS:     745225
L1D RFO       ACCESS:    5511913  HIT:    4652780  MISS:     859133
L1D PREFETCH  ACCESS:    5832485  HIT:    5271302  MISS:     561183
L1D WRITEBACK ACCESS:          0  HIT:          0  MISS:          0
L1D PREFETCH  REQUESTED:    7059683  ISSUED:    6868151  USEFUL:     198849  USELESS:     362395
L1D AVERAGE MISS LATENCY: 175.031 cycles
L1I TOTAL     ACCESS:   30194298  HIT:   28031898  MISS:    2162400
L1I LOAD      ACCESS:    9884782  HIT:    9865433  MISS:      19349
L1I RFO       ACCESS:          0  HIT:          0  MISS:          0
L1I PREFETCH  ACCESS:   20309516  HIT:   18166465  MISS:    2143051
L1I WRITEBACK ACCESS:          0  HIT:          0  MISS:          0
L1I PREFETCH  REQUESTED:   23957008  ISSUED:   23957008  USEFUL:    2065071  USELESS:      77981
L1I AVERAGE MISS LATENCY: 19.5289 cycles
L2C TOTAL     ACCESS:    6396269  HIT:    4550779  MISS:    1845490
L2C LOAD      ACCESS:     551863  HIT:     222956  MISS:     328907
L2C RFO       ACCESS:     858631  HIT:      17413  MISS:     841218
L2C PREFETCH  ACCESS:    3862967  HIT:    3189527  MISS:     673440
L2C WRITEBACK ACCESS:    1122808  HIT:    1120883  MISS:       1925
L2C PREFETCH  REQUESTED:    3871718  ISSUED:    3865828  USEFUL:      21914  USELESS:     652290
L2C AVERAGE MISS LATENCY: 209.247 cycles
LLC TOTAL     ACCESS:    4018550  HIT:    2504525  MISS:    1514025
LLC LOAD      ACCESS:     328851  HIT:     173121  MISS:     155730
LLC RFO       ACCESS:     841196  HIT:     123099  MISS:     718097
LLC PREFETCH  ACCESS:    1787443  HIT:    1149193  MISS:     638250
LLC WRITEBACK ACCESS:    1061060  HIT:    1059112  MISS:       1948
LLC PREFETCH  REQUESTED:          0  ISSUED:          0  USEFUL:      48685  USELESS:     588855
LLC AVERAGE MISS LATENCY: 265.711 cycles
Major fault: 0 Minor fault: 24697
CPU 0 L1I EPI prefetcher final stats
CPU 0 L1D next line prefetcher final stats

DRAM Statistics
 CHANNEL 0
 RQ ROW_BUFFER_HIT:     374456  ROW_BUFFER_MISS:    1137470
 DBUS_CONGESTED:    1457427
 WQ ROW_BUFFER_HIT:     254931  ROW_BUFFER_MISS:     621125  FULL:          0

 AVG_CONGESTED_CYCLE: 6

CPU 0 Branch Prediction Accuracy: 99.2833% MPKI: 1.20568 Average ROB Occupancy at Mispredict: 182.274

Branch types
NOT_BRANCH: 41588350 83.1767%
BRANCH_DIRECT_JUMP: 464501 0.929002%
BRANCH_INDIRECT: 45704 0.091408%
BRANCH_CONDITIONAL: 6147408 12.2948%
BRANCH_DIRECT_CALL: 675450 1.3509%
BRANCH_INDIRECT_CALL: 201532 0.403064%
BRANCH_RETURN: 876985 1.75397%
BRANCH_OTHER: 0 0%

