Initialize SIGNATURE TABLE
ST_SET: 1
ST_WAY: 256
ST_TAG_BIT: 16
ST_TAG_MASK: ffff

Initialize PATTERN TABLE
PT_SET: 512
PT_WAY: 4
SIG_DELTA_BIT: 7
C_SIG_BIT: 4
C_DELTA_BIT: 4

Initialize PREFETCH FILTER
FILTER_SET: 1024

*** ChampSim Multicore Out-of-Order Simulator ***

Warmup Instructions: 50000000
Simulation Instructions: 50000000
Number of CPUs: 1
LLC sets: 2048
LLC ways: 16
Off-chip DRAM Size: 4096 MB Channels: 1 Width: 64-bit Data Rate: 3200 MT/s

CPU 0 runs /home/tapatil/CSE240C/SA1/ChampSim-master/ipc1_public/server_004.champsimtrace.xz
CPU 0 EPI prefetcher
CPU 0 L1D next line prefetcher
Heartbeat CPU 0 instructions: 10000002 cycles: 3229294 heartbeat IPC: 3.09665 cumulative IPC: 3.09665 (Simulation time: 0 hr 0 min 38 sec) 
Heartbeat CPU 0 instructions: 20000002 cycles: 6564613 heartbeat IPC: 2.99821 cumulative IPC: 3.04664 (Simulation time: 0 hr 1 min 16 sec) 
Heartbeat CPU 0 instructions: 30000000 cycles: 11681754 heartbeat IPC: 1.95422 cumulative IPC: 2.56811 (Simulation time: 0 hr 2 min 6 sec) 
Heartbeat CPU 0 instructions: 40000003 cycles: 15430083 heartbeat IPC: 2.66786 cumulative IPC: 2.59234 (Simulation time: 0 hr 2 min 49 sec) 
Heartbeat CPU 0 instructions: 50000003 cycles: 18658662 heartbeat IPC: 3.09734 cumulative IPC: 2.67972 (Simulation time: 0 hr 3 min 27 sec) 

Warmup complete CPU 0 instructions: 50000003 cycles: 18658662 (Simulation time: 0 hr 3 min 27 sec) 

Heartbeat CPU 0 instructions: 60000002 cycles: 27163381 heartbeat IPC: 1.17582 cumulative IPC: 1.17582 (Simulation time: 0 hr 4 min 6 sec) 
Heartbeat CPU 0 instructions: 70000000 cycles: 35178557 heartbeat IPC: 1.24763 cumulative IPC: 1.21066 (Simulation time: 0 hr 4 min 44 sec) 
Heartbeat CPU 0 instructions: 80000001 cycles: 56051620 heartbeat IPC: 0.479086 cumulative IPC: 0.80229 (Simulation time: 0 hr 5 min 47 sec) 
Heartbeat CPU 0 instructions: 90000003 cycles: 70852658 heartbeat IPC: 0.675628 cumulative IPC: 0.766372 (Simulation time: 0 hr 6 min 32 sec) 
Heartbeat CPU 0 instructions: 100000003 cycles: 79423016 heartbeat IPC: 1.16681 cumulative IPC: 0.822851 (Simulation time: 0 hr 7 min 8 sec) 
Finished CPU 0 instructions: 50000000 cycles: 60764354 cumulative IPC: 0.822851 (Simulation time: 0 hr 7 min 8 sec) 

ChampSim completed all CPUs

Region of Interest Statistics

CPU 0 cumulative IPC: 0.822851 instructions: 50000000 cycles: 60764354
L1D TOTAL     ACCESS:   21607749  HIT:   17536722  MISS:    4071027
L1D LOAD      ACCESS:    8587612  HIT:    6569408  MISS:    2018204
L1D RFO       ACCESS:    4641305  HIT:    4534476  MISS:     106829
L1D PREFETCH  ACCESS:    8378832  HIT:    6432838  MISS:    1945994
L1D WRITEBACK ACCESS:          0  HIT:          0  MISS:          0
L1D PREFETCH  REQUESTED:    8622585  ISSUED:    8533574  USEFUL:     106382  USELESS:    1839607
L1D AVERAGE MISS LATENCY: 22.97 cycles
L1I TOTAL     ACCESS:   39286159  HIT:   37762665  MISS:    1523494
L1I LOAD      ACCESS:   10713422  HIT:   10631649  MISS:      81773
L1I RFO       ACCESS:          0  HIT:          0  MISS:          0
L1I PREFETCH  ACCESS:   28572737  HIT:   27131016  MISS:    1441721
L1I WRITEBACK ACCESS:          0  HIT:          0  MISS:          0
L1I PREFETCH  REQUESTED:   38909335  ISSUED:   38909335  USEFUL:    1050406  USELESS:     391229
L1I AVERAGE MISS LATENCY: 35.7719 cycles
L2C TOTAL     ACCESS:    7101707  HIT:    6052718  MISS:    1048989
L2C LOAD      ACCESS:    2053987  HIT:    1816017  MISS:     237970
L2C RFO       ACCESS:     105587  HIT:      56949  MISS:      48638
L2C PREFETCH  ACCESS:    4697112  HIT:    3936072  MISS:     761040
L2C WRITEBACK ACCESS:     245021  HIT:     243680  MISS:       1341
L2C PREFETCH  REQUESTED:    6976584  ISSUED:    6971895  USEFUL:      27078  USELESS:     733321
L2C AVERAGE MISS LATENCY: 60.0694 cycles
LLC TOTAL     ACCESS:    2410559  HIT:    2169983  MISS:     240576
LLC LOAD      ACCESS:     234742  HIT:     194112  MISS:      40630
LLC RFO       ACCESS:      48635  HIT:      33261  MISS:      15374
LLC PREFETCH  ACCESS:    1986624  HIT:    1802389  MISS:     184235
LLC WRITEBACK ACCESS:     140558  HIT:     140221  MISS:        337
LLC PREFETCH  REQUESTED:          0  ISSUED:          0  USEFUL:      19925  USELESS:     163907
LLC AVERAGE MISS LATENCY: 177.78 cycles
Major fault: 0 Minor fault: 7599
CPU 0 L1I EPI prefetcher final stats
CPU 0 L1D next line prefetcher final stats

DRAM Statistics
 CHANNEL 0
 RQ ROW_BUFFER_HIT:      51687  ROW_BUFFER_MISS:     188511
 DBUS_CONGESTED:     105041
 WQ ROW_BUFFER_HIT:      10842  ROW_BUFFER_MISS:      44198  FULL:          0

 AVG_CONGESTED_CYCLE: 5

CPU 0 Branch Prediction Accuracy: 98.1603% MPKI: 3.89124 Average ROB Occupancy at Mispredict: 68.2317

Branch types
NOT_BRANCH: 39423755 78.8475%
BRANCH_DIRECT_JUMP: 551642 1.10328%
BRANCH_INDIRECT: 139368 0.278736%
BRANCH_CONDITIONAL: 7920858 15.8417%
BRANCH_DIRECT_CALL: 776072 1.55214%
BRANCH_INDIRECT_CALL: 194644 0.389288%
BRANCH_RETURN: 993311 1.98662%
BRANCH_OTHER: 0 0%

