Initialize SIGNATURE TABLE
ST_SET: 1
ST_WAY: 256
ST_TAG_BIT: 16
ST_TAG_MASK: ffff

Initialize PATTERN TABLE
PT_SET: 512
PT_WAY: 4
SIG_DELTA_BIT: 7
C_SIG_BIT: 4
C_DELTA_BIT: 4

Initialize PREFETCH FILTER
FILTER_SET: 1024

*** ChampSim Multicore Out-of-Order Simulator ***

Warmup Instructions: 50000000
Simulation Instructions: 50000000
Number of CPUs: 1
LLC sets: 2048
LLC ways: 16
Off-chip DRAM Size: 4096 MB Channels: 1 Width: 64-bit Data Rate: 3200 MT/s

CPU 0 runs /home/tapatil/CSE240C/SA1/ChampSim-master/ipc1_public/server_009.champsimtrace.xz
CPU 0 EPI prefetcher
CPU 0 L1D next line prefetcher
Heartbeat CPU 0 instructions: 10000003 cycles: 3199629 heartbeat IPC: 3.12536 cumulative IPC: 3.12536 (Simulation time: 0 hr 0 min 37 sec) 
Heartbeat CPU 0 instructions: 20000001 cycles: 6392038 heartbeat IPC: 3.13243 cumulative IPC: 3.12889 (Simulation time: 0 hr 1 min 15 sec) 
Heartbeat CPU 0 instructions: 30000002 cycles: 9599404 heartbeat IPC: 3.11782 cumulative IPC: 3.12519 (Simulation time: 0 hr 1 min 53 sec) 
Heartbeat CPU 0 instructions: 40000003 cycles: 12803180 heartbeat IPC: 3.12132 cumulative IPC: 3.12422 (Simulation time: 0 hr 2 min 30 sec) 
Heartbeat CPU 0 instructions: 50000000 cycles: 16063341 heartbeat IPC: 3.06733 cumulative IPC: 3.11268 (Simulation time: 0 hr 3 min 8 sec) 

Warmup complete CPU 0 instructions: 50000004 cycles: 16063342 (Simulation time: 0 hr 3 min 8 sec) 

Heartbeat CPU 0 instructions: 60000002 cycles: 31691054 heartbeat IPC: 0.639889 cumulative IPC: 0.639889 (Simulation time: 0 hr 3 min 57 sec) 
Heartbeat CPU 0 instructions: 70000003 cycles: 52678608 heartbeat IPC: 0.476473 cumulative IPC: 0.54622 (Simulation time: 0 hr 4 min 58 sec) 
Heartbeat CPU 0 instructions: 80000000 cycles: 59801307 heartbeat IPC: 1.40396 cumulative IPC: 0.685903 (Simulation time: 0 hr 5 min 34 sec) 
Heartbeat CPU 0 instructions: 90000001 cycles: 67083435 heartbeat IPC: 1.37323 cumulative IPC: 0.784005 (Simulation time: 0 hr 6 min 10 sec) 
Heartbeat CPU 0 instructions: 100000003 cycles: 74244442 heartbeat IPC: 1.39645 cumulative IPC: 0.859386 (Simulation time: 0 hr 6 min 47 sec) 
Finished CPU 0 instructions: 50000003 cycles: 58181101 cumulative IPC: 0.859386 (Simulation time: 0 hr 6 min 47 sec) 

ChampSim completed all CPUs

Region of Interest Statistics

CPU 0 cumulative IPC: 0.859386 instructions: 50000003 cycles: 58181101
L1D TOTAL     ACCESS:   21609498  HIT:   17030005  MISS:    4579493
L1D LOAD      ACCESS:    8620583  HIT:    6341274  MISS:    2279309
L1D RFO       ACCESS:    4579580  HIT:    4475207  MISS:     104373
L1D PREFETCH  ACCESS:    8409335  HIT:    6213524  MISS:    2195811
L1D WRITEBACK ACCESS:          0  HIT:          0  MISS:          0
L1D PREFETCH  REQUESTED:    8652526  ISSUED:    8555556  USEFUL:     107335  USELESS:    2088475
L1D AVERAGE MISS LATENCY: 20.3182 cycles
L1I TOTAL     ACCESS:   40347076  HIT:   38875833  MISS:    1471243
L1I LOAD      ACCESS:   10762467  HIT:   10697339  MISS:      65128
L1I RFO       ACCESS:          0  HIT:          0  MISS:          0
L1I PREFETCH  ACCESS:   29584609  HIT:   28178494  MISS:    1406115
L1I WRITEBACK ACCESS:          0  HIT:          0  MISS:          0
L1I PREFETCH  REQUESTED:   41261483  ISSUED:   41261483  USEFUL:    1033965  USELESS:     372177
L1I AVERAGE MISS LATENCY: 33.453 cycles
L2C TOTAL     ACCESS:    7793942  HIT:    6748379  MISS:    1045563
L2C LOAD      ACCESS:    2303968  HIT:    2083133  MISS:     220835
L2C RFO       ACCESS:     103460  HIT:      63795  MISS:      39665
L2C PREFETCH  ACCESS:    5129647  HIT:    4345795  MISS:     783852
L2C WRITEBACK ACCESS:     256867  HIT:     255656  MISS:       1211
L2C PREFETCH  REQUESTED:    7750864  ISSUED:    7743012  USEFUL:      26497  USELESS:     756056
L2C AVERAGE MISS LATENCY: 48.2096 cycles
LLC TOTAL     ACCESS:    2443144  HIT:    2301243  MISS:     141901
LLC LOAD      ACCESS:     215651  HIT:     196567  MISS:      19084
LLC RFO       ACCESS:      39660  HIT:      30878  MISS:       8782
LLC PREFETCH  ACCESS:    2051752  HIT:    1937985  MISS:     113767
LLC WRITEBACK ACCESS:     136081  HIT:     135813  MISS:        268
LLC PREFETCH  REQUESTED:          0  ISSUED:          0  USEFUL:      10459  USELESS:      99804
LLC AVERAGE MISS LATENCY: 176.803 cycles
Major fault: 0 Minor fault: 6362
CPU 0 L1I EPI prefetcher final stats
CPU 0 L1D next line prefetcher final stats

DRAM Statistics
 CHANNEL 0
 RQ ROW_BUFFER_HIT:      28643  ROW_BUFFER_MISS:     112974
 DBUS_CONGESTED:      65690
 WQ ROW_BUFFER_HIT:       8915  ROW_BUFFER_MISS:      38780  FULL:          0

 AVG_CONGESTED_CYCLE: 5

CPU 0 Branch Prediction Accuracy: 99.4713% MPKI: 1.11484 Average ROB Occupancy at Mispredict: 121.941

Branch types
NOT_BRANCH: 39456615 78.9132%
BRANCH_DIRECT_JUMP: 445350 0.8907%
BRANCH_INDIRECT: 131149 0.262298%
BRANCH_CONDITIONAL: 8130196 16.2604%
BRANCH_DIRECT_CALL: 732485 1.46497%
BRANCH_INDIRECT_CALL: 172369 0.344738%
BRANCH_RETURN: 931558 1.86312%
BRANCH_OTHER: 0 0%

