Initialize SIGNATURE TABLE
ST_SET: 1
ST_WAY: 256
ST_TAG_BIT: 16
ST_TAG_MASK: ffff

Initialize PATTERN TABLE
PT_SET: 512
PT_WAY: 4
SIG_DELTA_BIT: 7
C_SIG_BIT: 4
C_DELTA_BIT: 4

Initialize PREFETCH FILTER
FILTER_SET: 1024

*** ChampSim Multicore Out-of-Order Simulator ***

Warmup Instructions: 50000000
Simulation Instructions: 50000000
Number of CPUs: 1
LLC sets: 2048
LLC ways: 16
Off-chip DRAM Size: 4096 MB Channels: 1 Width: 64-bit Data Rate: 3200 MT/s

CPU 0 runs /home/tapatil/CSE240C/SA1/ChampSim-master/ipc1_public/server_025.champsimtrace.xz
CPU 0 EPI prefetcher
CPU 0 L1D next line prefetcher
Heartbeat CPU 0 instructions: 10000003 cycles: 3524379 heartbeat IPC: 2.83738 cumulative IPC: 2.83738 (Simulation time: 0 hr 0 min 40 sec) 
Heartbeat CPU 0 instructions: 20000000 cycles: 7055793 heartbeat IPC: 2.83173 cumulative IPC: 2.83455 (Simulation time: 0 hr 1 min 20 sec) 
Heartbeat CPU 0 instructions: 30000001 cycles: 10579491 heartbeat IPC: 2.83793 cumulative IPC: 2.83568 (Simulation time: 0 hr 2 min 0 sec) 
Heartbeat CPU 0 instructions: 40000003 cycles: 14110025 heartbeat IPC: 2.83243 cumulative IPC: 2.83486 (Simulation time: 0 hr 2 min 41 sec) 
Heartbeat CPU 0 instructions: 50000001 cycles: 17638874 heartbeat IPC: 2.83378 cumulative IPC: 2.83465 (Simulation time: 0 hr 3 min 21 sec) 

Warmup complete CPU 0 instructions: 50000001 cycles: 17638874 (Simulation time: 0 hr 3 min 21 sec) 

Heartbeat CPU 0 instructions: 60000002 cycles: 24411930 heartbeat IPC: 1.47644 cumulative IPC: 1.47644 (Simulation time: 0 hr 4 min 3 sec) 
Heartbeat CPU 0 instructions: 70000000 cycles: 31284802 heartbeat IPC: 1.455 cumulative IPC: 1.46564 (Simulation time: 0 hr 4 min 46 sec) 
Heartbeat CPU 0 instructions: 80000002 cycles: 38075324 heartbeat IPC: 1.47264 cumulative IPC: 1.46797 (Simulation time: 0 hr 5 min 28 sec) 
Heartbeat CPU 0 instructions: 90000001 cycles: 44541608 heartbeat IPC: 1.54648 cumulative IPC: 1.48684 (Simulation time: 0 hr 6 min 12 sec) 
Heartbeat CPU 0 instructions: 100000003 cycles: 50728042 heartbeat IPC: 1.61644 cumulative IPC: 1.51107 (Simulation time: 0 hr 6 min 54 sec) 
Finished CPU 0 instructions: 50000002 cycles: 33089168 cumulative IPC: 1.51107 (Simulation time: 0 hr 6 min 54 sec) 

ChampSim completed all CPUs

Region of Interest Statistics

CPU 0 cumulative IPC: 1.51107 instructions: 50000002 cycles: 33089168
L1D TOTAL     ACCESS:   19966890  HIT:   18541540  MISS:    1425350
L1D LOAD      ACCESS:    6952936  HIT:    6333529  MISS:     619407
L1D RFO       ACCESS:    6374801  HIT:    6126446  MISS:     248355
L1D PREFETCH  ACCESS:    6639153  HIT:    6081565  MISS:     557588
L1D WRITEBACK ACCESS:          0  HIT:          0  MISS:          0
L1D PREFETCH  REQUESTED:    6993681  ISSUED:    6819415  USEFUL:     130372  USELESS:     427210
L1D AVERAGE MISS LATENCY: 23.1847 cycles
L1I TOTAL     ACCESS:   31422443  HIT:   28324189  MISS:    3098254
L1I LOAD      ACCESS:    9507321  HIT:    9461483  MISS:      45838
L1I RFO       ACCESS:          0  HIT:          0  MISS:          0
L1I PREFETCH  ACCESS:   21915122  HIT:   18862706  MISS:    3052416
L1I WRITEBACK ACCESS:          0  HIT:          0  MISS:          0
L1I PREFETCH  REQUESTED:   28184314  ISSUED:   28184314  USEFUL:    2441851  USELESS:     610595
L1I AVERAGE MISS LATENCY: 18.9028 cycles
L2C TOTAL     ACCESS:    6180572  HIT:    5507157  MISS:     673415
L2C LOAD      ACCESS:     610264  HIT:     500894  MISS:     109370
L2C RFO       ACCESS:     246771  HIT:     167039  MISS:      79732
L2C PREFETCH  ACCESS:    4826789  HIT:    4346888  MISS:     479901
L2C WRITEBACK ACCESS:     496748  HIT:     492336  MISS:       4412
L2C PREFETCH  REQUESTED:    4953466  ISSUED:    4943628  USEFUL:      10073  USELESS:     469207
L2C AVERAGE MISS LATENCY: 38.5866 cycles
LLC TOTAL     ACCESS:    2066175  HIT:    2035878  MISS:      30297
LLC LOAD      ACCESS:     109222  HIT:     106000  MISS:       3222
LLC RFO       ACCESS:      79714  HIT:      68903  MISS:      10811
LLC PREFETCH  ACCESS:    1744891  HIT:    1728841  MISS:      16050
LLC WRITEBACK ACCESS:     132348  HIT:     132134  MISS:        214
LLC PREFETCH  REQUESTED:          0  ISSUED:          0  USEFUL:       1096  USELESS:      13959
LLC AVERAGE MISS LATENCY: 180.088 cycles
Major fault: 0 Minor fault: 2459
CPU 0 L1I EPI prefetcher final stats
CPU 0 L1D next line prefetcher final stats

DRAM Statistics
 CHANNEL 0
 RQ ROW_BUFFER_HIT:       9424  ROW_BUFFER_MISS:      20656
 DBUS_CONGESTED:      18669
 WQ ROW_BUFFER_HIT:       1358  ROW_BUFFER_MISS:      11805  FULL:          0

 AVG_CONGESTED_CYCLE: 6

CPU 0 Branch Prediction Accuracy: 99.8142% MPKI: 0.34676 Average ROB Occupancy at Mispredict: 204.351

Branch types
NOT_BRANCH: 40668920 81.3378%
BRANCH_DIRECT_JUMP: 531701 1.0634%
BRANCH_INDIRECT: 199025 0.39805%
BRANCH_CONDITIONAL: 6211499 12.423%
BRANCH_DIRECT_CALL: 1010911 2.02182%
BRANCH_INDIRECT_CALL: 183501 0.367002%
BRANCH_RETURN: 1194416 2.38883%
BRANCH_OTHER: 0 0%

