Initialize SIGNATURE TABLE
ST_SET: 1
ST_WAY: 256
ST_TAG_BIT: 16
ST_TAG_MASK: ffff

Initialize PATTERN TABLE
PT_SET: 512
PT_WAY: 4
SIG_DELTA_BIT: 7
C_SIG_BIT: 4
C_DELTA_BIT: 4

Initialize PREFETCH FILTER
FILTER_SET: 1024

*** ChampSim Multicore Out-of-Order Simulator ***

Warmup Instructions: 50000000
Simulation Instructions: 50000000
Number of CPUs: 1
LLC sets: 2048
LLC ways: 16
Off-chip DRAM Size: 4096 MB Channels: 1 Width: 64-bit Data Rate: 3200 MT/s

CPU 0 runs /home/tapatil/CSE240C/SA1/ChampSim-master/ipc1_public/server_023.champsimtrace.xz
L1I D-JOLT instruction prefetcher has been constructed!
CPU 0 L1D next line prefetcher
Heartbeat CPU 0 instructions: 10000000 cycles: 3497966 heartbeat IPC: 2.8588 cumulative IPC: 2.8588 (Simulation time: 0 hr 0 min 32 sec) 
Heartbeat CPU 0 instructions: 20000000 cycles: 6995725 heartbeat IPC: 2.85897 cumulative IPC: 2.85889 (Simulation time: 0 hr 1 min 5 sec) 
Heartbeat CPU 0 instructions: 30000001 cycles: 10486522 heartbeat IPC: 2.86468 cumulative IPC: 2.86082 (Simulation time: 0 hr 1 min 38 sec) 
Heartbeat CPU 0 instructions: 40000003 cycles: 13983752 heartbeat IPC: 2.85941 cumulative IPC: 2.86046 (Simulation time: 0 hr 2 min 11 sec) 
Heartbeat CPU 0 instructions: 50000001 cycles: 17482348 heartbeat IPC: 2.85829 cumulative IPC: 2.86003 (Simulation time: 0 hr 2 min 43 sec) 

Warmup complete CPU 0 instructions: 50000001 cycles: 17482348 (Simulation time: 0 hr 2 min 43 sec) 

Heartbeat CPU 0 instructions: 60000002 cycles: 24218054 heartbeat IPC: 1.48463 cumulative IPC: 1.48463 (Simulation time: 0 hr 3 min 18 sec) 
Heartbeat CPU 0 instructions: 70000002 cycles: 31171790 heartbeat IPC: 1.43808 cumulative IPC: 1.46098 (Simulation time: 0 hr 3 min 52 sec) 
Heartbeat CPU 0 instructions: 80000000 cycles: 38032405 heartbeat IPC: 1.45759 cumulative IPC: 1.45985 (Simulation time: 0 hr 4 min 26 sec) 
Heartbeat CPU 0 instructions: 90000000 cycles: 44925683 heartbeat IPC: 1.45069 cumulative IPC: 1.45755 (Simulation time: 0 hr 4 min 58 sec) 
Heartbeat CPU 0 instructions: 100000001 cycles: 51759477 heartbeat IPC: 1.46332 cumulative IPC: 1.4587 (Simulation time: 0 hr 5 min 33 sec) 
Finished CPU 0 instructions: 50000000 cycles: 34277129 cumulative IPC: 1.4587 (Simulation time: 0 hr 5 min 33 sec) 

ChampSim completed all CPUs

Region of Interest Statistics

CPU 0 cumulative IPC: 1.4587 instructions: 50000000 cycles: 34277129
L1D TOTAL     ACCESS:   19336823  HIT:   17870047  MISS:    1466776
L1D LOAD      ACCESS:    6837185  HIT:    6176550  MISS:     660635
L1D RFO       ACCESS:    5983257  HIT:    5722232  MISS:     261025
L1D PREFETCH  ACCESS:    6516381  HIT:    5971265  MISS:     545116
L1D WRITEBACK ACCESS:          0  HIT:          0  MISS:          0
L1D PREFETCH  REQUESTED:    6888727  ISSUED:    6767175  USEFUL:     130540  USELESS:     414583
L1D AVERAGE MISS LATENCY: 24.9748 cycles
L1I TOTAL     ACCESS:   15324433  HIT:   12422528  MISS:    2901905
L1I LOAD      ACCESS:    9448997  HIT:    9402930  MISS:      46067
L1I RFO       ACCESS:          0  HIT:          0  MISS:          0
L1I PREFETCH  ACCESS:    5875436  HIT:    3019598  MISS:    2855838
L1I WRITEBACK ACCESS:          0  HIT:          0  MISS:          0
L1I PREFETCH  REQUESTED:    6203172  ISSUED:    6131761  USEFUL:    2402314  USELESS:     453527
L1I AVERAGE MISS LATENCY: 19.5899 cycles
L2C TOTAL     ACCESS:    6117822  HIT:    5335607  MISS:     782215
L2C LOAD      ACCESS:     643737  HIT:     505687  MISS:     138050
L2C RFO       ACCESS:     259398  HIT:     177146  MISS:      82252
L2C PREFETCH  ACCESS:    4715425  HIT:    4157345  MISS:     558080
L2C WRITEBACK ACCESS:     499262  HIT:     495429  MISS:       3833
L2C PREFETCH  REQUESTED:    4190043  ISSUED:    4185997  USEFUL:      13788  USELESS:     544491
L2C AVERAGE MISS LATENCY: 40.3407 cycles
LLC TOTAL     ACCESS:    2057022  HIT:    2006266  MISS:      50756
LLC LOAD      ACCESS:     137888  HIT:     131783  MISS:       6105
LLC RFO       ACCESS:      82244  HIT:      64295  MISS:      17949
LLC PREFETCH  ACCESS:    1694585  HIT:    1668130  MISS:      26455
LLC WRITEBACK ACCESS:     142305  HIT:     142058  MISS:        247
LLC PREFETCH  REQUESTED:          0  ISSUED:          0  USEFUL:       2329  USELESS:      23620
LLC AVERAGE MISS LATENCY: 182.925 cycles
Major fault: 0 Minor fault: 2776
CPU 0 L1D next line prefetcher final stats

DRAM Statistics
 CHANNEL 0
 RQ ROW_BUFFER_HIT:      15066  ROW_BUFFER_MISS:      35433
 DBUS_CONGESTED:      31416
 WQ ROW_BUFFER_HIT:       2358  ROW_BUFFER_MISS:      19494  FULL:          0

 AVG_CONGESTED_CYCLE: 6

CPU 0 Branch Prediction Accuracy: 99.6798% MPKI: 0.58608 Average ROB Occupancy at Mispredict: 147.559

Branch types
NOT_BRANCH: 40848355 81.6967%
BRANCH_DIRECT_JUMP: 548373 1.09675%
BRANCH_INDIRECT: 189802 0.379604%
BRANCH_CONDITIONAL: 6372772 12.7455%
BRANCH_DIRECT_CALL: 862207 1.72441%
BRANCH_INDIRECT_CALL: 158149 0.316298%
BRANCH_RETURN: 1020345 2.04069%
BRANCH_OTHER: 0 0%

