Initialize SIGNATURE TABLE
ST_SET: 1
ST_WAY: 256
ST_TAG_BIT: 16
ST_TAG_MASK: ffff

Initialize PATTERN TABLE
PT_SET: 512
PT_WAY: 4
SIG_DELTA_BIT: 7
C_SIG_BIT: 4
C_DELTA_BIT: 4

Initialize PREFETCH FILTER
FILTER_SET: 1024

*** ChampSim Multicore Out-of-Order Simulator ***

Warmup Instructions: 50000000
Simulation Instructions: 50000000
Number of CPUs: 1
LLC sets: 2048
LLC ways: 16
Off-chip DRAM Size: 4096 MB Channels: 1 Width: 64-bit Data Rate: 3200 MT/s

CPU 0 runs /home/tapatil/CSE240C/SA1/ChampSim-master/ipc1_public/server_021.champsimtrace.xz
CPU 0 EPI prefetcher
CPU 0 L1D next line prefetcher
Heartbeat CPU 0 instructions: 10000000 cycles: 3623302 heartbeat IPC: 2.75991 cumulative IPC: 2.75991 (Simulation time: 0 hr 0 min 39 sec) 
Heartbeat CPU 0 instructions: 20000000 cycles: 7241031 heartbeat IPC: 2.76416 cumulative IPC: 2.76204 (Simulation time: 0 hr 1 min 19 sec) 
Heartbeat CPU 0 instructions: 30000003 cycles: 10890017 heartbeat IPC: 2.74049 cumulative IPC: 2.75482 (Simulation time: 0 hr 1 min 59 sec) 
Heartbeat CPU 0 instructions: 40000001 cycles: 14503492 heartbeat IPC: 2.76742 cumulative IPC: 2.75796 (Simulation time: 0 hr 2 min 41 sec) 
Heartbeat CPU 0 instructions: 50000002 cycles: 18139035 heartbeat IPC: 2.75062 cumulative IPC: 2.75649 (Simulation time: 0 hr 3 min 22 sec) 

Warmup complete CPU 0 instructions: 50000002 cycles: 18139035 (Simulation time: 0 hr 3 min 22 sec) 

Heartbeat CPU 0 instructions: 60000001 cycles: 34848158 heartbeat IPC: 0.598475 cumulative IPC: 0.598475 (Simulation time: 0 hr 4 min 18 sec) 
Heartbeat CPU 0 instructions: 70000002 cycles: 51769207 heartbeat IPC: 0.59098 cumulative IPC: 0.594704 (Simulation time: 0 hr 5 min 14 sec) 
Heartbeat CPU 0 instructions: 80000001 cycles: 68461998 heartbeat IPC: 0.599061 cumulative IPC: 0.596149 (Simulation time: 0 hr 6 min 10 sec) 
Heartbeat CPU 0 instructions: 90000001 cycles: 85267810 heartbeat IPC: 0.595032 cumulative IPC: 0.59587 (Simulation time: 0 hr 7 min 6 sec) 
Heartbeat CPU 0 instructions: 100000002 cycles: 101912728 heartbeat IPC: 0.600784 cumulative IPC: 0.596846 (Simulation time: 0 hr 8 min 2 sec) 
Finished CPU 0 instructions: 50000000 cycles: 83773693 cumulative IPC: 0.596846 (Simulation time: 0 hr 8 min 2 sec) 

ChampSim completed all CPUs

Region of Interest Statistics

CPU 0 cumulative IPC: 0.596846 instructions: 50000000 cycles: 83773693
L1D TOTAL     ACCESS:   18698052  HIT:   16494598  MISS:    2203454
L1D LOAD      ACCESS:    7057488  HIT:    6353511  MISS:     703977
L1D RFO       ACCESS:    5877425  HIT:    4901876  MISS:     975549
L1D PREFETCH  ACCESS:    5763139  HIT:    5239211  MISS:     523928
L1D WRITEBACK ACCESS:          0  HIT:          0  MISS:          0
L1D PREFETCH  REQUESTED:    7100087  ISSUED:    6893410  USEFUL:     202692  USELESS:     321229
L1D AVERAGE MISS LATENCY: 178.462 cycles
L1I TOTAL     ACCESS:   37896914  HIT:   35251079  MISS:    2645835
L1I LOAD      ACCESS:   10121527  HIT:   10103020  MISS:      18507
L1I RFO       ACCESS:          0  HIT:          0  MISS:          0
L1I PREFETCH  ACCESS:   27775387  HIT:   25148059  MISS:    2627328
L1I WRITEBACK ACCESS:          0  HIT:          0  MISS:          0
L1I PREFETCH  REQUESTED:   33044531  ISSUED:   33044531  USEFUL:    2395260  USELESS:     232041
L1I AVERAGE MISS LATENCY: 18.5298 cycles
L2C TOTAL     ACCESS:    7146016  HIT:    5286998  MISS:    1859018
L2C LOAD      ACCESS:     486153  HIT:     238853  MISS:     247300
L2C RFO       ACCESS:     974961  HIT:      21532  MISS:     953429
L2C PREFETCH  ACCESS:    4505036  HIT:    3849390  MISS:     655646
L2C WRITEBACK ACCESS:    1179866  HIT:    1177223  MISS:       2643
L2C PREFETCH  REQUESTED:    4221647  ISSUED:    4217340  USEFUL:      20508  USELESS:     635211
L2C AVERAGE MISS LATENCY: 217.065 cycles
LLC TOTAL     ACCESS:    4082318  HIT:    2682404  MISS:    1399914
LLC LOAD      ACCESS:     247236  HIT:     171816  MISS:      75420
LLC RFO       ACCESS:     953388  HIT:     142116  MISS:     811272
LLC PREFETCH  ACCESS:    1769640  HIT:    1258535  MISS:     511105
LLC WRITEBACK ACCESS:    1112054  HIT:    1109937  MISS:       2117
LLC PREFETCH  REQUESTED:          0  ISSUED:          0  USEFUL:      28075  USELESS:     481302
LLC AVERAGE MISS LATENCY: 290.543 cycles
Major fault: 0 Minor fault: 22291
CPU 0 L1I EPI prefetcher final stats
CPU 0 L1D next line prefetcher final stats

DRAM Statistics
 CHANNEL 0
 RQ ROW_BUFFER_HIT:     405207  ROW_BUFFER_MISS:     992259
 DBUS_CONGESTED:    1437340
 WQ ROW_BUFFER_HIT:     261984  ROW_BUFFER_MISS:     635732  FULL:          0

 AVG_CONGESTED_CYCLE: 6

CPU 0 Branch Prediction Accuracy: 99.8303% MPKI: 0.27836 Average ROB Occupancy at Mispredict: 228.004

Branch types
NOT_BRANCH: 41798548 83.5971%
BRANCH_DIRECT_JUMP: 445215 0.89043%
BRANCH_INDIRECT: 50481 0.100962%
BRANCH_CONDITIONAL: 5868246 11.7365%
BRANCH_DIRECT_CALL: 758228 1.51646%
BRANCH_INDIRECT_CALL: 160494 0.320988%
BRANCH_RETURN: 918718 1.83744%
BRANCH_OTHER: 0 0%

