Initialize SIGNATURE TABLE
ST_SET: 1
ST_WAY: 256
ST_TAG_BIT: 16
ST_TAG_MASK: ffff

Initialize PATTERN TABLE
PT_SET: 512
PT_WAY: 4
SIG_DELTA_BIT: 7
C_SIG_BIT: 4
C_DELTA_BIT: 4

Initialize PREFETCH FILTER
FILTER_SET: 1024

*** ChampSim Multicore Out-of-Order Simulator ***

Warmup Instructions: 50000000
Simulation Instructions: 50000000
Number of CPUs: 1
LLC sets: 2048
LLC ways: 16
Off-chip DRAM Size: 4096 MB Channels: 1 Width: 64-bit Data Rate: 3200 MT/s

CPU 0 runs /home/tapatil/CSE240C/SA1/ChampSim-master/ipc1_public/server_004.champsimtrace.xz
CPU 0 EPI prefetcher
CPU 0 L1D next line prefetcher
Heartbeat CPU 0 instructions: 10000002 cycles: 3228938 heartbeat IPC: 3.09699 cumulative IPC: 3.09699 (Simulation time: 0 hr 0 min 37 sec) 
Heartbeat CPU 0 instructions: 20000002 cycles: 6563806 heartbeat IPC: 2.99862 cumulative IPC: 3.04701 (Simulation time: 0 hr 1 min 14 sec) 
Heartbeat CPU 0 instructions: 30000000 cycles: 11680867 heartbeat IPC: 1.95425 cumulative IPC: 2.5683 (Simulation time: 0 hr 2 min 3 sec) 
Heartbeat CPU 0 instructions: 40000003 cycles: 15429560 heartbeat IPC: 2.6676 cumulative IPC: 2.59243 (Simulation time: 0 hr 2 min 44 sec) 
Heartbeat CPU 0 instructions: 50000003 cycles: 18658113 heartbeat IPC: 3.09736 cumulative IPC: 2.6798 (Simulation time: 0 hr 3 min 22 sec) 

Warmup complete CPU 0 instructions: 50000003 cycles: 18658113 (Simulation time: 0 hr 3 min 22 sec) 

Heartbeat CPU 0 instructions: 60000002 cycles: 27192044 heartbeat IPC: 1.17179 cumulative IPC: 1.17179 (Simulation time: 0 hr 4 min 3 sec) 
Heartbeat CPU 0 instructions: 70000000 cycles: 35243108 heartbeat IPC: 1.24207 cumulative IPC: 1.20591 (Simulation time: 0 hr 4 min 42 sec) 
Heartbeat CPU 0 instructions: 80000001 cycles: 56135779 heartbeat IPC: 0.478637 cumulative IPC: 0.800477 (Simulation time: 0 hr 5 min 45 sec) 
Heartbeat CPU 0 instructions: 90000003 cycles: 70949628 heartbeat IPC: 0.675044 cumulative IPC: 0.764942 (Simulation time: 0 hr 6 min 29 sec) 
Heartbeat CPU 0 instructions: 100000003 cycles: 79583330 heartbeat IPC: 1.15825 cumulative IPC: 0.820678 (Simulation time: 0 hr 7 min 5 sec) 
Finished CPU 0 instructions: 50000000 cycles: 60925217 cumulative IPC: 0.820678 (Simulation time: 0 hr 7 min 5 sec) 

ChampSim completed all CPUs

Region of Interest Statistics

CPU 0 cumulative IPC: 0.820678 instructions: 50000000 cycles: 60925217
L1D TOTAL     ACCESS:   21617011  HIT:   17545951  MISS:    4071060
L1D LOAD      ACCESS:    8591824  HIT:    6573743  MISS:    2018081
L1D RFO       ACCESS:    4641869  HIT:    4535066  MISS:     106803
L1D PREFETCH  ACCESS:    8383318  HIT:    6437142  MISS:    1946176
L1D WRITEBACK ACCESS:          0  HIT:          0  MISS:          0
L1D PREFETCH  REQUESTED:    8626652  ISSUED:    8537725  USEFUL:     106565  USELESS:    1839603
L1D AVERAGE MISS LATENCY: 22.961 cycles
L1I TOTAL     ACCESS:   40805174  HIT:   39297284  MISS:    1507890
L1I LOAD      ACCESS:   10711948  HIT:   10620839  MISS:      91109
L1I RFO       ACCESS:          0  HIT:          0  MISS:          0
L1I PREFETCH  ACCESS:   30093226  HIT:   28676445  MISS:    1416781
L1I WRITEBACK ACCESS:          0  HIT:          0  MISS:          0
L1I PREFETCH  REQUESTED:   42533831  ISSUED:   42533831  USEFUL:    1015348  USELESS:     401363
L1I AVERAGE MISS LATENCY: 35.9741 cycles
L2C TOTAL     ACCESS:    7112611  HIT:    6062065  MISS:    1050546
L2C LOAD      ACCESS:    2062923  HIT:    1819962  MISS:     242961
L2C RFO       ACCESS:     105572  HIT:      57055  MISS:      48517
L2C PREFETCH  ACCESS:    4699084  HIT:    3941342  MISS:     757742
L2C WRITEBACK ACCESS:     245032  HIT:     243706  MISS:       1326
L2C PREFETCH  REQUESTED:    6978770  ISSUED:    6973329  USEFUL:      29807  USELESS:     727409
L2C AVERAGE MISS LATENCY: 59.8569 cycles
LLC TOTAL     ACCESS:    2434634  HIT:    2192778  MISS:     241856
LLC LOAD      ACCESS:     238198  HIT:     197221  MISS:      40977
LLC RFO       ACCESS:      48513  HIT:      33153  MISS:      15360
LLC PREFETCH  ACCESS:    2007362  HIT:    1822220  MISS:     185142
LLC WRITEBACK ACCESS:     140561  HIT:     140184  MISS:        377
LLC PREFETCH  REQUESTED:          0  ISSUED:          0  USEFUL:      20402  USELESS:     164202
LLC AVERAGE MISS LATENCY: 177.718 cycles
Major fault: 0 Minor fault: 7599
CPU 0 L1I EPI prefetcher final stats
CPU 0 L1D next line prefetcher final stats

DRAM Statistics
 CHANNEL 0
 RQ ROW_BUFFER_HIT:      51802  ROW_BUFFER_MISS:     189649
 DBUS_CONGESTED:     105417
 WQ ROW_BUFFER_HIT:      10818  ROW_BUFFER_MISS:      44695  FULL:          0

 AVG_CONGESTED_CYCLE: 5

CPU 0 Branch Prediction Accuracy: 98.1603% MPKI: 3.89124 Average ROB Occupancy at Mispredict: 67.9941

Branch types
NOT_BRANCH: 39423755 78.8475%
BRANCH_DIRECT_JUMP: 551642 1.10328%
BRANCH_INDIRECT: 139368 0.278736%
BRANCH_CONDITIONAL: 7920858 15.8417%
BRANCH_DIRECT_CALL: 776072 1.55214%
BRANCH_INDIRECT_CALL: 194644 0.389288%
BRANCH_RETURN: 993311 1.98662%
BRANCH_OTHER: 0 0%

