Initialize SIGNATURE TABLE
ST_SET: 1
ST_WAY: 256
ST_TAG_BIT: 16
ST_TAG_MASK: ffff

Initialize PATTERN TABLE
PT_SET: 512
PT_WAY: 4
SIG_DELTA_BIT: 7
C_SIG_BIT: 4
C_DELTA_BIT: 4

Initialize PREFETCH FILTER
FILTER_SET: 1024

*** ChampSim Multicore Out-of-Order Simulator ***

Warmup Instructions: 50000000
Simulation Instructions: 50000000
Number of CPUs: 1
LLC sets: 2048
LLC ways: 16
Off-chip DRAM Size: 4096 MB Channels: 1 Width: 64-bit Data Rate: 3200 MT/s

CPU 0 runs /home/tapatil/CSE240C/SA1/ChampSim-master/ipc1_public/server_030.champsimtrace.xz
L1I D-JOLT instruction prefetcher has been constructed!
CPU 0 L1D next line prefetcher
Heartbeat CPU 0 instructions: 10000003 cycles: 3507190 heartbeat IPC: 2.85129 cumulative IPC: 2.85129 (Simulation time: 0 hr 0 min 34 sec) 
Heartbeat CPU 0 instructions: 20000003 cycles: 7015596 heartbeat IPC: 2.8503 cumulative IPC: 2.85079 (Simulation time: 0 hr 1 min 7 sec) 
Heartbeat CPU 0 instructions: 30000000 cycles: 10523617 heartbeat IPC: 2.85061 cumulative IPC: 2.85073 (Simulation time: 0 hr 1 min 41 sec) 
Heartbeat CPU 0 instructions: 40000002 cycles: 14032096 heartbeat IPC: 2.85024 cumulative IPC: 2.85061 (Simulation time: 0 hr 2 min 14 sec) 
Heartbeat CPU 0 instructions: 50000002 cycles: 17543292 heartbeat IPC: 2.84803 cumulative IPC: 2.85009 (Simulation time: 0 hr 2 min 49 sec) 

Warmup complete CPU 0 instructions: 50000002 cycles: 17543292 (Simulation time: 0 hr 2 min 49 sec) 

Heartbeat CPU 0 instructions: 60000000 cycles: 24603221 heartbeat IPC: 1.41644 cumulative IPC: 1.41644 (Simulation time: 0 hr 3 min 25 sec) 
Heartbeat CPU 0 instructions: 70000000 cycles: 31672068 heartbeat IPC: 1.41466 cumulative IPC: 1.41555 (Simulation time: 0 hr 4 min 1 sec) 
Heartbeat CPU 0 instructions: 80000001 cycles: 38730207 heartbeat IPC: 1.4168 cumulative IPC: 1.41597 (Simulation time: 0 hr 4 min 38 sec) 
*** Reached end of trace for Core: 0 Repeating trace: /home/tapatil/CSE240C/SA1/ChampSim-master/ipc1_public/server_030.champsimtrace.xz
Heartbeat CPU 0 instructions: 90000002 cycles: 45788383 heartbeat IPC: 1.4168 cumulative IPC: 1.41618 (Simulation time: 0 hr 5 min 13 sec) 
Heartbeat CPU 0 instructions: 100000002 cycles: 52838058 heartbeat IPC: 1.41851 cumulative IPC: 1.41664 (Simulation time: 0 hr 5 min 49 sec) 
Finished CPU 0 instructions: 50000000 cycles: 35294766 cumulative IPC: 1.41664 (Simulation time: 0 hr 5 min 49 sec) 

ChampSim completed all CPUs

Region of Interest Statistics

CPU 0 cumulative IPC: 1.41664 instructions: 50000000 cycles: 35294766
L1D TOTAL     ACCESS:   19139791  HIT:   17063897  MISS:    2075894
L1D LOAD      ACCESS:    6759247  HIT:    5704720  MISS:    1054527
L1D RFO       ACCESS:    6169319  HIT:    5882761  MISS:     286558
L1D PREFETCH  ACCESS:    6211225  HIT:    5476416  MISS:     734809
L1D WRITEBACK ACCESS:          0  HIT:          0  MISS:          0
L1D PREFETCH  REQUESTED:    6812874  ISSUED:    6678640  USEFUL:     179349  USELESS:     555553
L1D AVERAGE MISS LATENCY: 19.2019 cycles
L1I TOTAL     ACCESS:   16670066  HIT:   13264367  MISS:    3405699
L1I LOAD      ACCESS:    9819795  HIT:    9773822  MISS:      45973
L1I RFO       ACCESS:          0  HIT:          0  MISS:          0
L1I PREFETCH  ACCESS:    6850271  HIT:    3490545  MISS:    3359726
L1I WRITEBACK ACCESS:          0  HIT:          0  MISS:          0
L1I PREFETCH  REQUESTED:    7304399  ISSUED:    7193618  USEFUL:    2948686  USELESS:     411064
L1I AVERAGE MISS LATENCY: 19.6583 cycles
L2C TOTAL     ACCESS:    7782926  HIT:    6903916  MISS:     879010
L2C LOAD      ACCESS:     931585  HIT:     785837  MISS:     145748
L2C RFO       ACCESS:     283624  HIT:     221003  MISS:      62621
L2C PREFETCH  ACCESS:    5952180  HIT:    5286282  MISS:     665898
L2C WRITEBACK ACCESS:     615537  HIT:     610794  MISS:       4743
L2C PREFETCH  REQUESTED:    5740035  ISSUED:    5731982  USEFUL:      10378  USELESS:     655387
L2C AVERAGE MISS LATENCY: 33.918 cycles
LLC TOTAL     ACCESS:    2426943  HIT:    2406156  MISS:      20787
LLC LOAD      ACCESS:     145499  HIT:     142641  MISS:       2858
LLC RFO       ACCESS:      62588  HIT:      60778  MISS:       1810
LLC PREFETCH  ACCESS:    2098895  HIT:    2082892  MISS:      16003
LLC WRITEBACK ACCESS:     119961  HIT:     119845  MISS:        116
LLC PREFETCH  REQUESTED:          0  ISSUED:          0  USEFUL:        848  USELESS:      14614
LLC AVERAGE MISS LATENCY: 146.393 cycles
Major fault: 0 Minor fault: 2042
CPU 0 L1D next line prefetcher final stats

DRAM Statistics
 CHANNEL 0
 RQ ROW_BUFFER_HIT:       6647  ROW_BUFFER_MISS:      14024
 DBUS_CONGESTED:       6313
 WQ ROW_BUFFER_HIT:        155  ROW_BUFFER_MISS:       2257  FULL:          0

 AVG_CONGESTED_CYCLE: 5

CPU 0 Branch Prediction Accuracy: 99.8445% MPKI: 0.29148 Average ROB Occupancy at Mispredict: 167.206

Branch types
NOT_BRANCH: 40628081 81.2562%
BRANCH_DIRECT_JUMP: 490941 0.981882%
BRANCH_INDIRECT: 175854 0.351708%
BRANCH_CONDITIONAL: 6321415 12.6428%
BRANCH_DIRECT_CALL: 1002072 2.00414%
BRANCH_INDIRECT_CALL: 189783 0.379566%
BRANCH_RETURN: 1191851 2.3837%
BRANCH_OTHER: 0 0%

