Initialize SIGNATURE TABLE
ST_SET: 1
ST_WAY: 256
ST_TAG_BIT: 16
ST_TAG_MASK: ffff

Initialize PATTERN TABLE
PT_SET: 512
PT_WAY: 4
SIG_DELTA_BIT: 7
C_SIG_BIT: 4
C_DELTA_BIT: 4

Initialize PREFETCH FILTER
FILTER_SET: 1024

*** ChampSim Multicore Out-of-Order Simulator ***

Warmup Instructions: 50000000
Simulation Instructions: 50000000
Number of CPUs: 1
LLC sets: 2048
LLC ways: 16
Off-chip DRAM Size: 4096 MB Channels: 1 Width: 64-bit Data Rate: 3200 MT/s

CPU 0 runs /home/tapatil/CSE240C/SA1/ChampSim-master/ipc1_public/server_038.champsimtrace.xz
L1I D-JOLT instruction prefetcher has been constructed!
CPU 0 L1D next line prefetcher
Heartbeat CPU 0 instructions: 10000001 cycles: 3321514 heartbeat IPC: 3.01068 cumulative IPC: 3.01068 (Simulation time: 0 hr 0 min 34 sec) 
Heartbeat CPU 0 instructions: 20000003 cycles: 6646100 heartbeat IPC: 3.00789 cumulative IPC: 3.00928 (Simulation time: 0 hr 1 min 8 sec) 
Heartbeat CPU 0 instructions: 30000003 cycles: 9967074 heartbeat IPC: 3.01116 cumulative IPC: 3.00991 (Simulation time: 0 hr 1 min 43 sec) 
Heartbeat CPU 0 instructions: 40000001 cycles: 13293333 heartbeat IPC: 3.00638 cumulative IPC: 3.00903 (Simulation time: 0 hr 2 min 17 sec) 
Heartbeat CPU 0 instructions: 50000001 cycles: 16617563 heartbeat IPC: 3.00822 cumulative IPC: 3.00886 (Simulation time: 0 hr 2 min 52 sec) 

Warmup complete CPU 0 instructions: 50000001 cycles: 16617563 (Simulation time: 0 hr 2 min 52 sec) 

Heartbeat CPU 0 instructions: 60000002 cycles: 23056541 heartbeat IPC: 1.55304 cumulative IPC: 1.55304 (Simulation time: 0 hr 3 min 29 sec) 
Heartbeat CPU 0 instructions: 70000001 cycles: 29459446 heartbeat IPC: 1.56179 cumulative IPC: 1.5574 (Simulation time: 0 hr 4 min 6 sec) 
Heartbeat CPU 0 instructions: 80000000 cycles: 35852695 heartbeat IPC: 1.56415 cumulative IPC: 1.55965 (Simulation time: 0 hr 4 min 43 sec) 
Heartbeat CPU 0 instructions: 90000001 cycles: 42271657 heartbeat IPC: 1.55788 cumulative IPC: 1.55921 (Simulation time: 0 hr 5 min 21 sec) 
*** Reached end of trace for Core: 0 Repeating trace: /home/tapatil/CSE240C/SA1/ChampSim-master/ipc1_public/server_038.champsimtrace.xz
Heartbeat CPU 0 instructions: 100000002 cycles: 48676572 heartbeat IPC: 1.5613 cumulative IPC: 1.55962 (Simulation time: 0 hr 5 min 58 sec) 
Finished CPU 0 instructions: 50000001 cycles: 32059009 cumulative IPC: 1.55962 (Simulation time: 0 hr 5 min 58 sec) 

ChampSim completed all CPUs

Region of Interest Statistics

CPU 0 cumulative IPC: 1.55962 instructions: 50000001 cycles: 32059009
L1D TOTAL     ACCESS:   18688828  HIT:   17706522  MISS:     982306
L1D LOAD      ACCESS:    6357391  HIT:    5864025  MISS:     493366
L1D RFO       ACCESS:    6210888  HIT:    6146490  MISS:      64398
L1D PREFETCH  ACCESS:    6120549  HIT:    5696007  MISS:     424542
L1D WRITEBACK ACCESS:          0  HIT:          0  MISS:          0
L1D PREFETCH  REQUESTED:    6394284  ISSUED:    6241455  USEFUL:     117894  USELESS:     306651
L1D AVERAGE MISS LATENCY: 29.691 cycles
L1I TOTAL     ACCESS:   19738431  HIT:   14826777  MISS:    4911654
L1I LOAD      ACCESS:    9468123  HIT:    9422804  MISS:      45319
L1I RFO       ACCESS:          0  HIT:          0  MISS:          0
L1I PREFETCH  ACCESS:   10270308  HIT:    5403973  MISS:    4866335
L1I WRITEBACK ACCESS:          0  HIT:          0  MISS:          0
L1I PREFETCH  REQUESTED:   10708183  ISSUED:   10690023  USEFUL:    4087172  USELESS:     779185
L1I AVERAGE MISS LATENCY: 14.8352 cycles
L2C TOTAL     ACCESS:    8587995  HIT:    8262894  MISS:     325101
L2C LOAD      ACCESS:     533342  HIT:     388534  MISS:     144808
L2C RFO       ACCESS:      64077  HIT:      34560  MISS:      29517
L2C PREFETCH  ACCESS:    7698770  HIT:    7549157  MISS:     149613
L2C WRITEBACK ACCESS:     291806  HIT:     290643  MISS:       1163
L2C PREFETCH  REQUESTED:    6456626  ISSUED:    6442835  USEFUL:       6261  USELESS:     143323
L2C AVERAGE MISS LATENCY: 45.6637 cycles
LLC TOTAL     ACCESS:    2057304  HIT:    1998391  MISS:      58913
LLC LOAD      ACCESS:     144803  HIT:     131916  MISS:      12887
LLC RFO       ACCESS:      29517  HIT:      24414  MISS:       5103
LLC PREFETCH  ACCESS:    1734156  HIT:    1693716  MISS:      40440
LLC WRITEBACK ACCESS:     148828  HIT:     148345  MISS:        483
LLC PREFETCH  REQUESTED:          0  ISSUED:          0  USEFUL:       3265  USELESS:      36752
LLC AVERAGE MISS LATENCY: 169.667 cycles
Major fault: 0 Minor fault: 5530
CPU 0 L1D next line prefetcher final stats

DRAM Statistics
 CHANNEL 0
 RQ ROW_BUFFER_HIT:       8751  ROW_BUFFER_MISS:      49669
 DBUS_CONGESTED:      28461
 WQ ROW_BUFFER_HIT:       1292  ROW_BUFFER_MISS:      11373  FULL:          0

 AVG_CONGESTED_CYCLE: 5

CPU 0 Branch Prediction Accuracy: 99.9279% MPKI: 0.12968 Average ROB Occupancy at Mispredict: 263.117

Branch types
NOT_BRANCH: 41006299 82.0126%
BRANCH_DIRECT_JUMP: 541914 1.08383%
BRANCH_INDIRECT: 59690 0.11938%
BRANCH_CONDITIONAL: 5915843 11.8317%
BRANCH_DIRECT_CALL: 1003587 2.00717%
BRANCH_INDIRECT_CALL: 234499 0.468998%
BRANCH_RETURN: 1238071 2.47614%
BRANCH_OTHER: 0 0%

