Initialize SIGNATURE TABLE
ST_SET: 1
ST_WAY: 256
ST_TAG_BIT: 16
ST_TAG_MASK: ffff

Initialize PATTERN TABLE
PT_SET: 512
PT_WAY: 4
SIG_DELTA_BIT: 7
C_SIG_BIT: 4
C_DELTA_BIT: 4

Initialize PREFETCH FILTER
FILTER_SET: 1024

*** ChampSim Multicore Out-of-Order Simulator ***

Warmup Instructions: 50000000
Simulation Instructions: 50000000
Number of CPUs: 1
LLC sets: 2048
LLC ways: 16
Off-chip DRAM Size: 4096 MB Channels: 1 Width: 64-bit Data Rate: 3200 MT/s

CPU 0 runs /home/tapatil/CSE240C/SA1/ChampSim-master/ipc1_public/server_034.champsimtrace.xz
CPU 0 EPI prefetcher
CPU 0 L1D next line prefetcher
Heartbeat CPU 0 instructions: 10000000 cycles: 3331171 heartbeat IPC: 3.00195 cumulative IPC: 3.00195 (Simulation time: 0 hr 0 min 39 sec) 
Heartbeat CPU 0 instructions: 20000002 cycles: 6655186 heartbeat IPC: 3.00841 cumulative IPC: 3.00518 (Simulation time: 0 hr 1 min 19 sec) 
Heartbeat CPU 0 instructions: 30000003 cycles: 9987616 heartbeat IPC: 3.00081 cumulative IPC: 3.00372 (Simulation time: 0 hr 1 min 58 sec) 
Heartbeat CPU 0 instructions: 40000001 cycles: 13317805 heartbeat IPC: 3.00283 cumulative IPC: 3.0035 (Simulation time: 0 hr 2 min 37 sec) 
Heartbeat CPU 0 instructions: 50000000 cycles: 16647552 heartbeat IPC: 3.00323 cumulative IPC: 3.00344 (Simulation time: 0 hr 3 min 16 sec) 

Warmup complete CPU 0 instructions: 50000002 cycles: 16647553 (Simulation time: 0 hr 3 min 16 sec) 

Heartbeat CPU 0 instructions: 60000002 cycles: 22618388 heartbeat IPC: 1.67481 cumulative IPC: 1.67481 (Simulation time: 0 hr 3 min 57 sec) 
Heartbeat CPU 0 instructions: 70000003 cycles: 29026836 heartbeat IPC: 1.56044 cumulative IPC: 1.6156 (Simulation time: 0 hr 4 min 38 sec) 
Heartbeat CPU 0 instructions: 80000002 cycles: 35078810 heartbeat IPC: 1.65235 cumulative IPC: 1.62767 (Simulation time: 0 hr 5 min 19 sec) 
Heartbeat CPU 0 instructions: 90000002 cycles: 41127782 heartbeat IPC: 1.65317 cumulative IPC: 1.63397 (Simulation time: 0 hr 6 min 0 sec) 
Heartbeat CPU 0 instructions: 100000002 cycles: 47150163 heartbeat IPC: 1.66047 cumulative IPC: 1.6392 (Simulation time: 0 hr 6 min 40 sec) 
Finished CPU 0 instructions: 50000000 cycles: 30502610 cumulative IPC: 1.6392 (Simulation time: 0 hr 6 min 40 sec) 

ChampSim completed all CPUs

Region of Interest Statistics

CPU 0 cumulative IPC: 1.6392 instructions: 50000000 cycles: 30502610
L1D TOTAL     ACCESS:   18235414  HIT:   16811379  MISS:    1424035
L1D LOAD      ACCESS:    6127703  HIT:    5471619  MISS:     656084
L1D RFO       ACCESS:    6163269  HIT:    6020756  MISS:     142513
L1D PREFETCH  ACCESS:    5944442  HIT:    5319004  MISS:     625438
L1D WRITEBACK ACCESS:          0  HIT:          0  MISS:          0
L1D PREFETCH  REQUESTED:    6161827  ISSUED:    6071862  USEFUL:     141021  USELESS:     484386
L1D AVERAGE MISS LATENCY: 18.0272 cycles
L1I TOTAL     ACCESS:   30270188  HIT:   26709273  MISS:    3560915
L1I LOAD      ACCESS:    9642685  HIT:    9556796  MISS:      85889
L1I RFO       ACCESS:          0  HIT:          0  MISS:          0
L1I PREFETCH  ACCESS:   20627503  HIT:   17152477  MISS:    3475026
L1I WRITEBACK ACCESS:          0  HIT:          0  MISS:          0
L1I PREFETCH  REQUESTED:   26165145  ISSUED:   26165145  USEFUL:    3230267  USELESS:     244751
L1I AVERAGE MISS LATENCY: 15.4205 cycles
L2C TOTAL     ACCESS:    6821964  HIT:    6672957  MISS:     149007
L2C LOAD      ACCESS:     702949  HIT:     658349  MISS:      44600
L2C RFO       ACCESS:     140695  HIT:     131963  MISS:       8732
L2C PREFETCH  ACCESS:    5627570  HIT:    5532802  MISS:      94768
L2C WRITEBACK ACCESS:     350750  HIT:     349843  MISS:        907
L2C PREFETCH  REQUESTED:    6100683  ISSUED:    6077011  USEFUL:       2951  USELESS:      90860
L2C AVERAGE MISS LATENCY: 40.9653 cycles
LLC TOTAL     ACCESS:    1954572  HIT:    1937038  MISS:      17534
LLC LOAD      ACCESS:      44509  HIT:      41314  MISS:       3195
LLC RFO       ACCESS:       8732  HIT:       8430  MISS:        302
LLC PREFETCH  ACCESS:    1859866  HIT:    1845952  MISS:      13914
LLC WRITEBACK ACCESS:      41465  HIT:      41342  MISS:        123
LLC PREFETCH  REQUESTED:          0  ISSUED:          0  USEFUL:       3509  USELESS:       8366
LLC AVERAGE MISS LATENCY: 165.287 cycles
Major fault: 0 Minor fault: 1170
CPU 0 L1I EPI prefetcher final stats
CPU 0 L1D next line prefetcher final stats

DRAM Statistics
 CHANNEL 0
 RQ ROW_BUFFER_HIT:       4010  ROW_BUFFER_MISS:      13396
 DBUS_CONGESTED:       7754
 WQ ROW_BUFFER_HIT:       1398  ROW_BUFFER_MISS:       4028  FULL:          0

 AVG_CONGESTED_CYCLE: 5

CPU 0 Branch Prediction Accuracy: 99.926% MPKI: 0.14472 Average ROB Occupancy at Mispredict: 258.568

Branch types
NOT_BRANCH: 40221082 80.4422%
BRANCH_DIRECT_JUMP: 771319 1.54264%
BRANCH_INDIRECT: 108663 0.217326%
BRANCH_CONDITIONAL: 6375045 12.7501%
BRANCH_DIRECT_CALL: 1049638 2.09928%
BRANCH_INDIRECT_CALL: 212283 0.424566%
BRANCH_RETURN: 1261926 2.52385%
BRANCH_OTHER: 0 0%

