Initialize SIGNATURE TABLE
ST_SET: 1
ST_WAY: 256
ST_TAG_BIT: 16
ST_TAG_MASK: ffff

Initialize PATTERN TABLE
PT_SET: 512
PT_WAY: 4
SIG_DELTA_BIT: 7
C_SIG_BIT: 4
C_DELTA_BIT: 4

Initialize PREFETCH FILTER
FILTER_SET: 1024

*** ChampSim Multicore Out-of-Order Simulator ***

Warmup Instructions: 50000000
Simulation Instructions: 50000000
Number of CPUs: 1
LLC sets: 2048
LLC ways: 16
Off-chip DRAM Size: 4096 MB Channels: 1 Width: 64-bit Data Rate: 3200 MT/s

CPU 0 runs /home/tapatil/CSE240C/SA1/ChampSim-master/ipc1_public/server_015.champsimtrace.xz
CPU 0 EPI prefetcher
CPU 0 L1D next line prefetcher
Heartbeat CPU 0 instructions: 10000002 cycles: 3519408 heartbeat IPC: 2.84139 cumulative IPC: 2.84139 (Simulation time: 0 hr 0 min 41 sec) 
Heartbeat CPU 0 instructions: 20000001 cycles: 7107277 heartbeat IPC: 2.78717 cumulative IPC: 2.81402 (Simulation time: 0 hr 1 min 22 sec) 
Heartbeat CPU 0 instructions: 30000001 cycles: 10646244 heartbeat IPC: 2.82568 cumulative IPC: 2.8179 (Simulation time: 0 hr 2 min 5 sec) 
Heartbeat CPU 0 instructions: 40000002 cycles: 14194285 heartbeat IPC: 2.81846 cumulative IPC: 2.81804 (Simulation time: 0 hr 2 min 48 sec) 
Heartbeat CPU 0 instructions: 50000002 cycles: 17742545 heartbeat IPC: 2.81828 cumulative IPC: 2.81809 (Simulation time: 0 hr 3 min 31 sec) 

Warmup complete CPU 0 instructions: 50000002 cycles: 17742545 (Simulation time: 0 hr 3 min 31 sec) 

Heartbeat CPU 0 instructions: 60000002 cycles: 24043460 heartbeat IPC: 1.58707 cumulative IPC: 1.58707 (Simulation time: 0 hr 4 min 17 sec) 
Heartbeat CPU 0 instructions: 70000003 cycles: 30351559 heartbeat IPC: 1.58526 cumulative IPC: 1.58617 (Simulation time: 0 hr 5 min 2 sec) 
Heartbeat CPU 0 instructions: 80000000 cycles: 36659821 heartbeat IPC: 1.58522 cumulative IPC: 1.58585 (Simulation time: 0 hr 5 min 48 sec) 
Heartbeat CPU 0 instructions: 90000000 cycles: 42971554 heartbeat IPC: 1.58435 cumulative IPC: 1.58548 (Simulation time: 0 hr 6 min 36 sec) 
Heartbeat CPU 0 instructions: 100000002 cycles: 49280046 heartbeat IPC: 1.58517 cumulative IPC: 1.58541 (Simulation time: 0 hr 7 min 24 sec) 
Finished CPU 0 instructions: 50000000 cycles: 31537501 cumulative IPC: 1.58541 (Simulation time: 0 hr 7 min 24 sec) 

ChampSim completed all CPUs

Region of Interest Statistics

CPU 0 cumulative IPC: 1.58541 instructions: 50000000 cycles: 31537501
L1D TOTAL     ACCESS:   21823490  HIT:   21806722  MISS:      16768
L1D LOAD      ACCESS:    6688285  HIT:    6687755  MISS:        530
L1D RFO       ACCESS:    8561472  HIT:    8561376  MISS:         96
L1D PREFETCH  ACCESS:    6573733  HIT:    6557591  MISS:      16142
L1D WRITEBACK ACCESS:          0  HIT:          0  MISS:          0
L1D PREFETCH  REQUESTED:    6688345  ISSUED:    6578096  USEFUL:         84  USELESS:      16056
L1D AVERAGE MISS LATENCY: 16.2567 cycles
L1I TOTAL     ACCESS:   49093405  HIT:   46531233  MISS:    2562172
L1I LOAD      ACCESS:    9791387  HIT:    9750574  MISS:      40813
L1I RFO       ACCESS:          0  HIT:          0  MISS:          0
L1I PREFETCH  ACCESS:   39302018  HIT:   36780659  MISS:    2521359
L1I WRITEBACK ACCESS:          0  HIT:          0  MISS:          0
L1I PREFETCH  REQUESTED:   47852053  ISSUED:   47852053  USEFUL:    1971786  USELESS:     549585
L1I AVERAGE MISS LATENCY: 14.38 cycles
L2C TOTAL     ACCESS:    3489496  HIT:    3489109  MISS:        387
L2C LOAD      ACCESS:      35787  HIT:      35726  MISS:         61
L2C RFO       ACCESS:         94  HIT:         92  MISS:          2
L2C PREFETCH  ACCESS:    3453267  HIT:    3452943  MISS:        324
L2C WRITEBACK ACCESS:        348  HIT:        348  MISS:          0
L2C PREFETCH  REQUESTED:    1889724  ISSUED:    1889654  USEFUL:         75  USELESS:        165
L2C AVERAGE MISS LATENCY: 80.1886 cycles
LLC TOTAL     ACCESS:     203338  HIT:     202546  MISS:        792
LLC LOAD      ACCESS:         61  HIT:         47  MISS:         14
LLC RFO       ACCESS:          2  HIT:          0  MISS:          2
LLC PREFETCH  ACCESS:     203174  HIT:     202401  MISS:        773
LLC WRITEBACK ACCESS:        101  HIT:         98  MISS:          3
LLC PREFETCH  REQUESTED:          0  ISSUED:          0  USEFUL:          8  USELESS:        149
LLC AVERAGE MISS LATENCY: 396.619 cycles
Major fault: 0 Minor fault: 1889
CPU 0 L1I EPI prefetcher final stats
CPU 0 L1D next line prefetcher final stats

DRAM Statistics
 CHANNEL 0
 RQ ROW_BUFFER_HIT:        127  ROW_BUFFER_MISS:        662
 DBUS_CONGESTED:        456
 WQ ROW_BUFFER_HIT:         73  ROW_BUFFER_MISS:        468  FULL:          0

 AVG_CONGESTED_CYCLE: 6

CPU 0 Branch Prediction Accuracy: 99.9085% MPKI: 0.15428 Average ROB Occupancy at Mispredict: 298.395

Branch types
NOT_BRANCH: 41573151 83.1463%
BRANCH_DIRECT_JUMP: 436254 0.872508%
BRANCH_INDIRECT: 0 0%
BRANCH_CONDITIONAL: 5395897 10.7918%
BRANCH_DIRECT_CALL: 1173392 2.34678%
BRANCH_INDIRECT_CALL: 123912 0.247824%
BRANCH_RETURN: 1297311 2.59462%
BRANCH_OTHER: 0 0%

