Initialize SIGNATURE TABLE
ST_SET: 1
ST_WAY: 256
ST_TAG_BIT: 16
ST_TAG_MASK: ffff

Initialize PATTERN TABLE
PT_SET: 512
PT_WAY: 4
SIG_DELTA_BIT: 7
C_SIG_BIT: 4
C_DELTA_BIT: 4

Initialize PREFETCH FILTER
FILTER_SET: 1024

*** ChampSim Multicore Out-of-Order Simulator ***

Warmup Instructions: 50000000
Simulation Instructions: 50000000
Number of CPUs: 1
LLC sets: 2048
LLC ways: 16
Off-chip DRAM Size: 4096 MB Channels: 1 Width: 64-bit Data Rate: 3200 MT/s

CPU 0 runs /home/tapatil/CSE240C/SA1/ChampSim-master/ipc1_public/server_033.champsimtrace.xz
L1I D-JOLT instruction prefetcher has been constructed!
CPU 0 L1D next line prefetcher
Heartbeat CPU 0 instructions: 10000001 cycles: 3343255 heartbeat IPC: 2.9911 cumulative IPC: 2.9911 (Simulation time: 0 hr 0 min 33 sec) 
Heartbeat CPU 0 instructions: 20000002 cycles: 6685144 heartbeat IPC: 2.99232 cumulative IPC: 2.99171 (Simulation time: 0 hr 1 min 7 sec) 
Heartbeat CPU 0 instructions: 30000001 cycles: 10016984 heartbeat IPC: 3.00134 cumulative IPC: 2.99491 (Simulation time: 0 hr 1 min 40 sec) 
Heartbeat CPU 0 instructions: 40000000 cycles: 13358444 heartbeat IPC: 2.9927 cumulative IPC: 2.99436 (Simulation time: 0 hr 2 min 14 sec) 
Heartbeat CPU 0 instructions: 50000000 cycles: 16698959 heartbeat IPC: 2.99355 cumulative IPC: 2.9942 (Simulation time: 0 hr 2 min 48 sec) 

Warmup complete CPU 0 instructions: 50000004 cycles: 16698960 (Simulation time: 0 hr 2 min 48 sec) 

Heartbeat CPU 0 instructions: 60000000 cycles: 23334557 heartbeat IPC: 1.50702 cumulative IPC: 1.50702 (Simulation time: 0 hr 3 min 23 sec) 
Heartbeat CPU 0 instructions: 70000000 cycles: 29933384 heartbeat IPC: 1.51542 cumulative IPC: 1.51121 (Simulation time: 0 hr 4 min 0 sec) 
Heartbeat CPU 0 instructions: 80000000 cycles: 37292604 heartbeat IPC: 1.35884 cumulative IPC: 1.45676 (Simulation time: 0 hr 4 min 36 sec) 
Heartbeat CPU 0 instructions: 90000003 cycles: 43988539 heartbeat IPC: 1.49344 cumulative IPC: 1.46576 (Simulation time: 0 hr 5 min 13 sec) 
Heartbeat CPU 0 instructions: 100000003 cycles: 50634485 heartbeat IPC: 1.50468 cumulative IPC: 1.47338 (Simulation time: 0 hr 5 min 50 sec) 
Finished CPU 0 instructions: 50000003 cycles: 33935526 cumulative IPC: 1.47338 (Simulation time: 0 hr 5 min 50 sec) 

ChampSim completed all CPUs

Region of Interest Statistics

CPU 0 cumulative IPC: 1.47338 instructions: 50000003 cycles: 33935526
L1D TOTAL     ACCESS:   18234652  HIT:   16752394  MISS:    1482258
L1D LOAD      ACCESS:    6141788  HIT:    5457965  MISS:     683823
L1D RFO       ACCESS:    6166047  HIT:    6016715  MISS:     149332
L1D PREFETCH  ACCESS:    5926817  HIT:    5277714  MISS:     649103
L1D WRITEBACK ACCESS:          0  HIT:          0  MISS:          0
L1D PREFETCH  REQUESTED:    6183263  ISSUED:    6062743  USEFUL:     140872  USELESS:     508237
L1D AVERAGE MISS LATENCY: 24.4053 cycles
L1I TOTAL     ACCESS:   19451129  HIT:   15385893  MISS:    4065236
L1I LOAD      ACCESS:    9698478  HIT:    9654941  MISS:      43537
L1I RFO       ACCESS:          0  HIT:          0  MISS:          0
L1I PREFETCH  ACCESS:    9752651  HIT:    5730952  MISS:    4021699
L1I WRITEBACK ACCESS:          0  HIT:          0  MISS:          0
L1I PREFETCH  REQUESTED:   10350579  ISSUED:   10203307  USEFUL:    3334486  USELESS:     687177
L1I AVERAGE MISS LATENCY: 15.9047 cycles
L2C TOTAL     ACCESS:    7774766  HIT:    7392254  MISS:     382512
L2C LOAD      ACCESS:     717628  HIT:     586575  MISS:     131053
L2C RFO       ACCESS:     147923  HIT:     126552  MISS:      21371
L2C PREFETCH  ACCESS:    6542709  HIT:    6314936  MISS:     227773
L2C WRITEBACK ACCESS:     366506  HIT:     364191  MISS:       2315
L2C PREFETCH  REQUESTED:    6187180  ISSUED:    6152181  USEFUL:       8925  USELESS:     218616
L2C AVERAGE MISS LATENCY: 47.5615 cycles
LLC TOTAL     ACCESS:    2579997  HIT:    2506350  MISS:      73647
LLC LOAD      ACCESS:     131017  HIT:     116149  MISS:      14868
LLC RFO       ACCESS:      21367  HIT:      18792  MISS:       2575
LLC PREFETCH  ACCESS:    2319913  HIT:    2264124  MISS:      55789
LLC WRITEBACK ACCESS:     107700  HIT:     107285  MISS:        415
LLC PREFETCH  REQUESTED:          0  ISSUED:          0  USEFUL:       8596  USELESS:      45266
LLC AVERAGE MISS LATENCY: 176.738 cycles
Major fault: 0 Minor fault: 2488
CPU 0 L1D next line prefetcher final stats

DRAM Statistics
 CHANNEL 0
 RQ ROW_BUFFER_HIT:      11020  ROW_BUFFER_MISS:      62195
 DBUS_CONGESTED:      31432
 WQ ROW_BUFFER_HIT:       4468  ROW_BUFFER_MISS:      19300  FULL:          0

 AVG_CONGESTED_CYCLE: 5

CPU 0 Branch Prediction Accuracy: 99.9029% MPKI: 0.19006 Average ROB Occupancy at Mispredict: 254.566

Branch types
NOT_BRANCH: 40217116 80.4342%
BRANCH_DIRECT_JUMP: 774599 1.5492%
BRANCH_INDIRECT: 108806 0.217612%
BRANCH_CONDITIONAL: 6379332 12.7587%
BRANCH_DIRECT_CALL: 1048809 2.09762%
BRANCH_INDIRECT_CALL: 211109 0.422218%
BRANCH_RETURN: 1259925 2.51985%
BRANCH_OTHER: 0 0%

