Initialize SIGNATURE TABLE
ST_SET: 1
ST_WAY: 256
ST_TAG_BIT: 16
ST_TAG_MASK: ffff

Initialize PATTERN TABLE
PT_SET: 512
PT_WAY: 4
SIG_DELTA_BIT: 7
C_SIG_BIT: 4
C_DELTA_BIT: 4

Initialize PREFETCH FILTER
FILTER_SET: 1024

*** ChampSim Multicore Out-of-Order Simulator ***

Warmup Instructions: 50000000
Simulation Instructions: 50000000
Number of CPUs: 1
LLC sets: 2048
LLC ways: 16
Off-chip DRAM Size: 4096 MB Channels: 1 Width: 64-bit Data Rate: 3200 MT/s

CPU 0 runs /home/tapatil/CSE240C/SA1/ChampSim-master/ipc1_public/server_025.champsimtrace.xz
CPU 0 EPI prefetcher
CPU 0 L1D next line prefetcher
Heartbeat CPU 0 instructions: 10000003 cycles: 3523156 heartbeat IPC: 2.83837 cumulative IPC: 2.83837 (Simulation time: 0 hr 0 min 39 sec) 
Heartbeat CPU 0 instructions: 20000000 cycles: 7054149 heartbeat IPC: 2.83206 cumulative IPC: 2.83521 (Simulation time: 0 hr 1 min 19 sec) 
Heartbeat CPU 0 instructions: 30000001 cycles: 10576977 heartbeat IPC: 2.83863 cumulative IPC: 2.83635 (Simulation time: 0 hr 1 min 58 sec) 
Heartbeat CPU 0 instructions: 40000003 cycles: 14106038 heartbeat IPC: 2.83362 cumulative IPC: 2.83567 (Simulation time: 0 hr 2 min 39 sec) 
Heartbeat CPU 0 instructions: 50000001 cycles: 17632909 heartbeat IPC: 2.83537 cumulative IPC: 2.83561 (Simulation time: 0 hr 3 min 19 sec) 

Warmup complete CPU 0 instructions: 50000001 cycles: 17632909 (Simulation time: 0 hr 3 min 19 sec) 

Heartbeat CPU 0 instructions: 60000002 cycles: 24404699 heartbeat IPC: 1.47671 cumulative IPC: 1.47671 (Simulation time: 0 hr 4 min 0 sec) 
Heartbeat CPU 0 instructions: 70000002 cycles: 31274281 heartbeat IPC: 1.45569 cumulative IPC: 1.46613 (Simulation time: 0 hr 4 min 41 sec) 
Heartbeat CPU 0 instructions: 80000002 cycles: 38060084 heartbeat IPC: 1.47366 cumulative IPC: 1.46863 (Simulation time: 0 hr 5 min 22 sec) 
Heartbeat CPU 0 instructions: 90000001 cycles: 44519994 heartbeat IPC: 1.54801 cumulative IPC: 1.4877 (Simulation time: 0 hr 6 min 3 sec) 
Heartbeat CPU 0 instructions: 100000003 cycles: 50706768 heartbeat IPC: 1.61635 cumulative IPC: 1.51177 (Simulation time: 0 hr 6 min 44 sec) 
Finished CPU 0 instructions: 50000002 cycles: 33073859 cumulative IPC: 1.51177 (Simulation time: 0 hr 6 min 44 sec) 

ChampSim completed all CPUs

Region of Interest Statistics

CPU 0 cumulative IPC: 1.51177 instructions: 50000002 cycles: 33073859
L1D TOTAL     ACCESS:   19993444  HIT:   18568041  MISS:    1425403
L1D LOAD      ACCESS:    6965323  HIT:    6346075  MISS:     619248
L1D RFO       ACCESS:    6375578  HIT:    6127206  MISS:     248372
L1D PREFETCH  ACCESS:    6652543  HIT:    6094760  MISS:     557783
L1D WRITEBACK ACCESS:          0  HIT:          0  MISS:          0
L1D PREFETCH  REQUESTED:    7006033  ISSUED:    6832248  USEFUL:     130524  USELESS:     427253
L1D AVERAGE MISS LATENCY: 22.865 cycles
L1I TOTAL     ACCESS:   28576404  HIT:   25798692  MISS:    2777712
L1I LOAD      ACCESS:    9452770  HIT:    9310770  MISS:     142000
L1I RFO       ACCESS:          0  HIT:          0  MISS:          0
L1I PREFETCH  ACCESS:   19123634  HIT:   16487922  MISS:    2635712
L1I WRITEBACK ACCESS:          0  HIT:          0  MISS:          0
L1I PREFETCH  REQUESTED:   24167094  ISSUED:   24167094  USEFUL:    2315899  USELESS:     319842
L1I AVERAGE MISS LATENCY: 18.923 cycles
L2C TOTAL     ACCESS:    5745429  HIT:    5095144  MISS:     650285
L2C LOAD      ACCESS:     671059  HIT:     562430  MISS:     108629
L2C RFO       ACCESS:     246766  HIT:     169800  MISS:      76966
L2C PREFETCH  ACCESS:    4330854  HIT:    3870149  MISS:     460705
L2C WRITEBACK ACCESS:     496750  HIT:     492765  MISS:       3985
L2C PREFETCH  REQUESTED:    4623134  ISSUED:    4613122  USEFUL:      13715  USELESS:     446446
L2C AVERAGE MISS LATENCY: 38.6868 cycles
LLC TOTAL     ACCESS:    1993969  HIT:    1964476  MISS:      29493
LLC LOAD      ACCESS:     108484  HIT:     105287  MISS:       3197
LLC RFO       ACCESS:      76962  HIT:      66187  MISS:      10775
LLC PREFETCH  ACCESS:    1682638  HIT:    1667321  MISS:      15317
LLC WRITEBACK ACCESS:     125885  HIT:     125681  MISS:        204
LLC PREFETCH  REQUESTED:          0  ISSUED:          0  USEFUL:       1129  USELESS:      13268
LLC AVERAGE MISS LATENCY: 179.426 cycles
Major fault: 0 Minor fault: 2458
CPU 0 L1I EPI prefetcher final stats
CPU 0 L1D next line prefetcher final stats

DRAM Statistics
 CHANNEL 0
 RQ ROW_BUFFER_HIT:       9416  ROW_BUFFER_MISS:      19871
 DBUS_CONGESTED:      18810
 WQ ROW_BUFFER_HIT:       1349  ROW_BUFFER_MISS:      11844  FULL:          0

 AVG_CONGESTED_CYCLE: 6

CPU 0 Branch Prediction Accuracy: 99.8142% MPKI: 0.34676 Average ROB Occupancy at Mispredict: 199.901

Branch types
NOT_BRANCH: 40668928 81.3379%
BRANCH_DIRECT_JUMP: 531701 1.0634%
BRANCH_INDIRECT: 199025 0.39805%
BRANCH_CONDITIONAL: 6211501 12.423%
BRANCH_DIRECT_CALL: 1010911 2.02182%
BRANCH_INDIRECT_CALL: 183501 0.367002%
BRANCH_RETURN: 1194416 2.38883%
BRANCH_OTHER: 0 0%

