Initialize SIGNATURE TABLE
ST_SET: 1
ST_WAY: 256
ST_TAG_BIT: 16
ST_TAG_MASK: ffff

Initialize PATTERN TABLE
PT_SET: 512
PT_WAY: 4
SIG_DELTA_BIT: 7
C_SIG_BIT: 4
C_DELTA_BIT: 4

Initialize PREFETCH FILTER
FILTER_SET: 1024

*** ChampSim Multicore Out-of-Order Simulator ***

Warmup Instructions: 50000000
Simulation Instructions: 50000000
Number of CPUs: 1
LLC sets: 2048
LLC ways: 16
Off-chip DRAM Size: 4096 MB Channels: 1 Width: 64-bit Data Rate: 3200 MT/s

CPU 0 runs /home/tapatil/CSE240C/SA1/ChampSim-master/ipc1_public/server_019.champsimtrace.xz
CPU 0 EPI prefetcher
CPU 0 L1D next line prefetcher
Heartbeat CPU 0 instructions: 10000002 cycles: 3622624 heartbeat IPC: 2.76043 cumulative IPC: 2.76043 (Simulation time: 0 hr 0 min 39 sec) 
Heartbeat CPU 0 instructions: 20000003 cycles: 7246771 heartbeat IPC: 2.75927 cumulative IPC: 2.75985 (Simulation time: 0 hr 1 min 19 sec) 
Heartbeat CPU 0 instructions: 30000002 cycles: 10869612 heartbeat IPC: 2.76026 cumulative IPC: 2.75999 (Simulation time: 0 hr 1 min 59 sec) 
Heartbeat CPU 0 instructions: 40000002 cycles: 14504160 heartbeat IPC: 2.75137 cumulative IPC: 2.75783 (Simulation time: 0 hr 2 min 38 sec) 
Heartbeat CPU 0 instructions: 50000001 cycles: 18127353 heartbeat IPC: 2.76 cumulative IPC: 2.75826 (Simulation time: 0 hr 3 min 19 sec) 

Warmup complete CPU 0 instructions: 50000001 cycles: 18127353 (Simulation time: 0 hr 3 min 19 sec) 

Heartbeat CPU 0 instructions: 60000000 cycles: 37793388 heartbeat IPC: 0.508491 cumulative IPC: 0.508491 (Simulation time: 0 hr 4 min 15 sec) 
Heartbeat CPU 0 instructions: 70000002 cycles: 61236420 heartbeat IPC: 0.426566 cumulative IPC: 0.46394 (Simulation time: 0 hr 5 min 8 sec) 
Heartbeat CPU 0 instructions: 80000001 cycles: 81651626 heartbeat IPC: 0.489831 cumulative IPC: 0.47226 (Simulation time: 0 hr 6 min 1 sec) 
Heartbeat CPU 0 instructions: 90000002 cycles: 99139821 heartbeat IPC: 0.571814 cumulative IPC: 0.493751 (Simulation time: 0 hr 6 min 56 sec) 
Heartbeat CPU 0 instructions: 100000002 cycles: 116629494 heartbeat IPC: 0.571766 cumulative IPC: 0.507603 (Simulation time: 0 hr 7 min 51 sec) 
Finished CPU 0 instructions: 50000001 cycles: 98502141 cumulative IPC: 0.507603 (Simulation time: 0 hr 7 min 51 sec) 

ChampSim completed all CPUs

Region of Interest Statistics

CPU 0 cumulative IPC: 0.507603 instructions: 50000001 cycles: 98502141
L1D TOTAL     ACCESS:   18296803  HIT:   16073258  MISS:    2223545
L1D LOAD      ACCESS:    6974156  HIT:    6222133  MISS:     752023
L1D RFO       ACCESS:    5509384  HIT:    4607520  MISS:     901864
L1D PREFETCH  ACCESS:    5813263  HIT:    5243605  MISS:     569658
L1D WRITEBACK ACCESS:          0  HIT:          0  MISS:          0
L1D PREFETCH  REQUESTED:    7011179  ISSUED:    6824479  USEFUL:     200505  USELESS:     369061
L1D AVERAGE MISS LATENCY: 186.154 cycles
L1I TOTAL     ACCESS:   29854488  HIT:   27660740  MISS:    2193748
L1I LOAD      ACCESS:    9855610  HIT:    9835844  MISS:      19766
L1I RFO       ACCESS:          0  HIT:          0  MISS:          0
L1I PREFETCH  ACCESS:   19998878  HIT:   17824896  MISS:    2173982
L1I WRITEBACK ACCESS:          0  HIT:          0  MISS:          0
L1I PREFETCH  REQUESTED:   23582927  ISSUED:   23582927  USEFUL:    2081103  USELESS:      92887
L1I AVERAGE MISS LATENCY: 20.4498 cycles
L2C TOTAL     ACCESS:    6588402  HIT:    4695677  MISS:    1892725
L2C LOAD      ACCESS:     566221  HIT:     232917  MISS:     333304
L2C RFO       ACCESS:     901439  HIT:      18360  MISS:     883079
L2C PREFETCH  ACCESS:    3946142  HIT:    3272030  MISS:     674112
L2C WRITEBACK ACCESS:    1174600  HIT:    1172370  MISS:       2230
L2C PREFETCH  REQUESTED:    4058223  ISSUED:    4052025  USEFUL:      22568  USELESS:     650108
L2C AVERAGE MISS LATENCY: 222.502 cycles
LLC TOTAL     ACCESS:    4141356  HIT:    2548836  MISS:    1592520
LLC LOAD      ACCESS:     333208  HIT:     169064  MISS:     164144
LLC RFO       ACCESS:     883063  HIT:     115028  MISS:     768035
LLC PREFETCH  ACCESS:    1814668  HIT:    1156455  MISS:     658213
LLC WRITEBACK ACCESS:    1110417  HIT:    1108289  MISS:       2128
LLC PREFETCH  REQUESTED:          0  ISSUED:          0  USEFUL:      51807  USELESS:     605958
LLC AVERAGE MISS LATENCY: 276.964 cycles
Major fault: 0 Minor fault: 25694
CPU 0 L1I EPI prefetcher final stats
CPU 0 L1D next line prefetcher final stats

DRAM Statistics
 CHANNEL 0
 RQ ROW_BUFFER_HIT:     393534  ROW_BUFFER_MISS:    1196583
 DBUS_CONGESTED:    1573736
 WQ ROW_BUFFER_HIT:     263412  ROW_BUFFER_MISS:     671125  FULL:          0

 AVG_CONGESTED_CYCLE: 6

CPU 0 Branch Prediction Accuracy: 99.2186% MPKI: 1.32192 Average ROB Occupancy at Mispredict: 179.555

Branch types
NOT_BRANCH: 41540785 83.0816%
BRANCH_DIRECT_JUMP: 462384 0.924768%
BRANCH_INDIRECT: 45460 0.09092%
BRANCH_CONDITIONAL: 6209281 12.4186%
BRANCH_DIRECT_CALL: 666241 1.33248%
BRANCH_INDIRECT_CALL: 204728 0.409456%
BRANCH_RETURN: 870978 1.74196%
BRANCH_OTHER: 0 0%

