Initialize SIGNATURE TABLE
ST_SET: 1
ST_WAY: 256
ST_TAG_BIT: 16
ST_TAG_MASK: ffff

Initialize PATTERN TABLE
PT_SET: 512
PT_WAY: 4
SIG_DELTA_BIT: 7
C_SIG_BIT: 4
C_DELTA_BIT: 4

Initialize PREFETCH FILTER
FILTER_SET: 1024

*** ChampSim Multicore Out-of-Order Simulator ***

Warmup Instructions: 50000000
Simulation Instructions: 50000000
Number of CPUs: 1
LLC sets: 2048
LLC ways: 16
Off-chip DRAM Size: 4096 MB Channels: 1 Width: 64-bit Data Rate: 3200 MT/s

CPU 0 runs /home/tapatil/CSE240C/SA1/ChampSim-master/ipc1_public/server_001.champsimtrace.xz
CPU 0 EPI prefetcher
CPU 0 L1D next line prefetcher
Heartbeat CPU 0 instructions: 10000002 cycles: 3155715 heartbeat IPC: 3.16885 cumulative IPC: 3.16885 (Simulation time: 0 hr 0 min 33 sec) 
Heartbeat CPU 0 instructions: 20000000 cycles: 6371142 heartbeat IPC: 3.11001 cumulative IPC: 3.13915 (Simulation time: 0 hr 1 min 9 sec) 
Heartbeat CPU 0 instructions: 30000003 cycles: 9558508 heartbeat IPC: 3.13739 cumulative IPC: 3.13857 (Simulation time: 0 hr 1 min 45 sec) 
Heartbeat CPU 0 instructions: 40000002 cycles: 12767074 heartbeat IPC: 3.11666 cumulative IPC: 3.13306 (Simulation time: 0 hr 2 min 23 sec) 
Heartbeat CPU 0 instructions: 50000003 cycles: 15987044 heartbeat IPC: 3.10562 cumulative IPC: 3.12753 (Simulation time: 0 hr 3 min 0 sec) 

Warmup complete CPU 0 instructions: 50000003 cycles: 15987044 (Simulation time: 0 hr 3 min 0 sec) 

Heartbeat CPU 0 instructions: 60000000 cycles: 23111476 heartbeat IPC: 1.40362 cumulative IPC: 1.40362 (Simulation time: 0 hr 3 min 36 sec) 
Heartbeat CPU 0 instructions: 70000002 cycles: 29903622 heartbeat IPC: 1.47229 cumulative IPC: 1.43713 (Simulation time: 0 hr 4 min 13 sec) 
Heartbeat CPU 0 instructions: 80000002 cycles: 36643883 heartbeat IPC: 1.48362 cumulative IPC: 1.4523 (Simulation time: 0 hr 4 min 50 sec) 
Heartbeat CPU 0 instructions: 90000002 cycles: 43692611 heartbeat IPC: 1.4187 cumulative IPC: 1.44375 (Simulation time: 0 hr 5 min 28 sec) 
Heartbeat CPU 0 instructions: 100000003 cycles: 50379793 heartbeat IPC: 1.4954 cumulative IPC: 1.45379 (Simulation time: 0 hr 6 min 5 sec) 
Finished CPU 0 instructions: 50000000 cycles: 34392749 cumulative IPC: 1.45379 (Simulation time: 0 hr 6 min 5 sec) 

ChampSim completed all CPUs

Region of Interest Statistics

CPU 0 cumulative IPC: 1.45379 instructions: 50000000 cycles: 34392749
L1D TOTAL     ACCESS:   17590440  HIT:   17079364  MISS:     511076
L1D LOAD      ACCESS:    6431173  HIT:    6226027  MISS:     205146
L1D RFO       ACCESS:    5052863  HIT:    4970240  MISS:      82623
L1D PREFETCH  ACCESS:    6106404  HIT:    5883097  MISS:     223307
L1D WRITEBACK ACCESS:          0  HIT:          0  MISS:          0
L1D PREFETCH  REQUESTED:    6460088  ISSUED:    6283107  USEFUL:     131610  USELESS:      91825
L1D AVERAGE MISS LATENCY: 96.4002 cycles
L1I TOTAL     ACCESS:   38839430  HIT:   38083154  MISS:     756276
L1I LOAD      ACCESS:    8249499  HIT:    8228150  MISS:      21349
L1I RFO       ACCESS:          0  HIT:          0  MISS:          0
L1I PREFETCH  ACCESS:   30589931  HIT:   29855004  MISS:     734927
L1I WRITEBACK ACCESS:          0  HIT:          0  MISS:          0
L1I PREFETCH  REQUESTED:   38888136  ISSUED:   38888136  USEFUL:     528991  USELESS:     206028
L1I AVERAGE MISS LATENCY: 39.151 cycles
L2C TOTAL     ACCESS:    1891155  HIT:    1402025  MISS:     489130
L2C LOAD      ACCESS:     177819  HIT:      85982  MISS:      91837
L2C RFO       ACCESS:      80898  HIT:      10115  MISS:      70783
L2C PREFETCH  ACCESS:    1424579  HIT:    1098617  MISS:     325962
L2C WRITEBACK ACCESS:     207859  HIT:     207311  MISS:        548
L2C PREFETCH  REQUESTED:    1902518  ISSUED:    1897389  USEFUL:      21713  USELESS:     303927
L2C AVERAGE MISS LATENCY: 129.5 cycles
LLC TOTAL     ACCESS:    1185685  HIT:     847789  MISS:     337896
LLC LOAD      ACCESS:      91719  HIT:      61213  MISS:      30506
LLC RFO       ACCESS:      70779  HIT:       6944  MISS:      63835
LLC PREFETCH  ACCESS:     855050  HIT:     611806  MISS:     243244
LLC WRITEBACK ACCESS:     168137  HIT:     167826  MISS:        311
LLC PREFETCH  REQUESTED:          0  ISSUED:          0  USEFUL:      25483  USELESS:     212616
LLC AVERAGE MISS LATENCY: 238.199 cycles
Major fault: 0 Minor fault: 16716
CPU 0 L1I EPI prefetcher final stats
CPU 0 L1D next line prefetcher final stats

DRAM Statistics
 CHANNEL 0
 RQ ROW_BUFFER_HIT:     105108  ROW_BUFFER_MISS:     232438
 DBUS_CONGESTED:     230993
 WQ ROW_BUFFER_HIT:      35406  ROW_BUFFER_MISS:     123775  FULL:          0

 AVG_CONGESTED_CYCLE: 6

CPU 0 Branch Prediction Accuracy: 99.5889% MPKI: 0.70108 Average ROB Occupancy at Mispredict: 117.987

Branch types
NOT_BRANCH: 41473584 82.9472%
BRANCH_DIRECT_JUMP: 347941 0.695882%
BRANCH_INDIRECT: 148212 0.296424%
BRANCH_CONDITIONAL: 6817277 13.6346%
BRANCH_DIRECT_CALL: 570725 1.14145%
BRANCH_INDIRECT_CALL: 25133 0.050266%
BRANCH_RETURN: 617123 1.23425%
BRANCH_OTHER: 0 0%

