Initialize SIGNATURE TABLE
ST_SET: 1
ST_WAY: 256
ST_TAG_BIT: 16
ST_TAG_MASK: ffff

Initialize PATTERN TABLE
PT_SET: 512
PT_WAY: 4
SIG_DELTA_BIT: 7
C_SIG_BIT: 4
C_DELTA_BIT: 4

Initialize PREFETCH FILTER
FILTER_SET: 1024

*** ChampSim Multicore Out-of-Order Simulator ***

Warmup Instructions: 50000000
Simulation Instructions: 50000000
Number of CPUs: 1
LLC sets: 2048
LLC ways: 16
Off-chip DRAM Size: 4096 MB Channels: 1 Width: 64-bit Data Rate: 3200 MT/s

CPU 0 runs /home/tapatil/CSE240C/SA1/ChampSim-master/ipc1_public/server_011.champsimtrace.xz
CPU 0 EPI prefetcher
CPU 0 L1D next line prefetcher
Heartbeat CPU 0 instructions: 10000002 cycles: 3206880 heartbeat IPC: 3.1183 cumulative IPC: 3.1183 (Simulation time: 0 hr 0 min 38 sec) 
Heartbeat CPU 0 instructions: 20000001 cycles: 6418486 heartbeat IPC: 3.11371 cumulative IPC: 3.116 (Simulation time: 0 hr 1 min 17 sec) 
Heartbeat CPU 0 instructions: 30000001 cycles: 9673535 heartbeat IPC: 3.07215 cumulative IPC: 3.10124 (Simulation time: 0 hr 1 min 55 sec) 
Heartbeat CPU 0 instructions: 40000003 cycles: 12876993 heartbeat IPC: 3.12163 cumulative IPC: 3.10632 (Simulation time: 0 hr 2 min 34 sec) 
Heartbeat CPU 0 instructions: 50000000 cycles: 16086869 heartbeat IPC: 3.11538 cumulative IPC: 3.10812 (Simulation time: 0 hr 3 min 12 sec) 

Warmup complete CPU 0 instructions: 50000004 cycles: 16086870 (Simulation time: 0 hr 3 min 12 sec) 

Heartbeat CPU 0 instructions: 60000002 cycles: 23466718 heartbeat IPC: 1.35504 cumulative IPC: 1.35504 (Simulation time: 0 hr 3 min 50 sec) 
Heartbeat CPU 0 instructions: 70000001 cycles: 31209722 heartbeat IPC: 1.29149 cumulative IPC: 1.3225 (Simulation time: 0 hr 4 min 27 sec) 
Heartbeat CPU 0 instructions: 80000003 cycles: 39908801 heartbeat IPC: 1.14955 cumulative IPC: 1.25934 (Simulation time: 0 hr 5 min 0 sec) 
Heartbeat CPU 0 instructions: 90000001 cycles: 47487296 heartbeat IPC: 1.31952 cumulative IPC: 1.27387 (Simulation time: 0 hr 5 min 36 sec) 
Heartbeat CPU 0 instructions: 100000000 cycles: 54837013 heartbeat IPC: 1.3606 cumulative IPC: 1.29032 (Simulation time: 0 hr 6 min 12 sec) 
Finished CPU 0 instructions: 50000003 cycles: 38750155 cumulative IPC: 1.29032 (Simulation time: 0 hr 6 min 12 sec) 

ChampSim completed all CPUs

Region of Interest Statistics

CPU 0 cumulative IPC: 1.29032 instructions: 50000003 cycles: 38750155
L1D TOTAL     ACCESS:   18161694  HIT:   17130549  MISS:    1031145
L1D LOAD      ACCESS:    6783034  HIT:    6302616  MISS:     480418
L1D RFO       ACCESS:    4831981  HIT:    4749996  MISS:      81985
L1D PREFETCH  ACCESS:    6546679  HIT:    6077937  MISS:     468742
L1D WRITEBACK ACCESS:          0  HIT:          0  MISS:          0
L1D PREFETCH  REQUESTED:    6819719  ISSUED:    6727138  USEFUL:     138490  USELESS:     330248
L1D AVERAGE MISS LATENCY: 40.5222 cycles
L1I TOTAL     ACCESS:   32170185  HIT:   30445592  MISS:    1724593
L1I LOAD      ACCESS:    8873874  HIT:    8788450  MISS:      85424
L1I RFO       ACCESS:          0  HIT:          0  MISS:          0
L1I PREFETCH  ACCESS:   23296311  HIT:   21657142  MISS:    1639169
L1I WRITEBACK ACCESS:          0  HIT:          0  MISS:          0
L1I PREFETCH  REQUESTED:   29821614  ISSUED:   29821614  USEFUL:    1194092  USELESS:     445015
L1I AVERAGE MISS LATENCY: 33.0766 cycles
L2C TOTAL     ACCESS:    3612926  HIT:    2492996  MISS:    1119930
L2C LOAD      ACCESS:     514515  HIT:     277187  MISS:     237328
L2C RFO       ACCESS:      80172  HIT:      34690  MISS:      45482
L2C PREFETCH  ACCESS:    2750139  HIT:    1914109  MISS:     836030
L2C WRITEBACK ACCESS:     268100  HIT:     267010  MISS:       1090
L2C PREFETCH  REQUESTED:    3568021  ISSUED:    3559726  USEFUL:      30844  USELESS:     804972
L2C AVERAGE MISS LATENCY: 52.1584 cycles
LLC TOTAL     ACCESS:    2237322  HIT:    2045478  MISS:     191844
LLC LOAD      ACCESS:     234068  HIT:     207515  MISS:      26553
LLC RFO       ACCESS:      45474  HIT:      32317  MISS:      13157
LLC PREFETCH  ACCESS:    1806583  HIT:    1654948  MISS:     151635
LLC WRITEBACK ACCESS:     151197  HIT:     150698  MISS:        499
LLC PREFETCH  REQUESTED:          0  ISSUED:          0  USEFUL:      17017  USELESS:     133372
LLC AVERAGE MISS LATENCY: 178.576 cycles
Major fault: 0 Minor fault: 6984
CPU 0 L1I EPI prefetcher final stats
CPU 0 L1D next line prefetcher final stats

DRAM Statistics
 CHANNEL 0
 RQ ROW_BUFFER_HIT:      38061  ROW_BUFFER_MISS:     153256
 DBUS_CONGESTED:      88067
 WQ ROW_BUFFER_HIT:      12317  ROW_BUFFER_MISS:      49539  FULL:          0

 AVG_CONGESTED_CYCLE: 5

CPU 0 Branch Prediction Accuracy: 97.5565% MPKI: 4.59006 Average ROB Occupancy at Mispredict: 63.3956

Branch types
NOT_BRANCH: 40607199 81.2144%
BRANCH_DIRECT_JUMP: 451601 0.903202%
BRANCH_INDIRECT: 151580 0.30316%
BRANCH_CONDITIONAL: 7041635 14.0833%
BRANCH_DIRECT_CALL: 647827 1.29565%
BRANCH_INDIRECT_CALL: 211373 0.422746%
BRANCH_RETURN: 888439 1.77688%
BRANCH_OTHER: 0 0%

