Initialize SIGNATURE TABLE
ST_SET: 1
ST_WAY: 256
ST_TAG_BIT: 16
ST_TAG_MASK: ffff

Initialize PATTERN TABLE
PT_SET: 512
PT_WAY: 4
SIG_DELTA_BIT: 7
C_SIG_BIT: 4
C_DELTA_BIT: 4

Initialize PREFETCH FILTER
FILTER_SET: 1024

*** ChampSim Multicore Out-of-Order Simulator ***

Warmup Instructions: 50000000
Simulation Instructions: 50000000
Number of CPUs: 1
LLC sets: 2048
LLC ways: 16
Off-chip DRAM Size: 4096 MB Channels: 1 Width: 64-bit Data Rate: 3200 MT/s

CPU 0 runs /home/tapatil/CSE240C/SA1/ChampSim-master/ipc1_public/server_004.champsimtrace.xz
CPU 0 EPI prefetcher
CPU 0 L1D next line prefetcher
Heartbeat CPU 0 instructions: 10000002 cycles: 3227240 heartbeat IPC: 3.09862 cumulative IPC: 3.09862 (Simulation time: 0 hr 0 min 37 sec) 
Heartbeat CPU 0 instructions: 20000002 cycles: 6561064 heartbeat IPC: 2.99956 cumulative IPC: 3.04829 (Simulation time: 0 hr 1 min 13 sec) 
Heartbeat CPU 0 instructions: 30000000 cycles: 11678067 heartbeat IPC: 1.95427 cumulative IPC: 2.56892 (Simulation time: 0 hr 2 min 2 sec) 
Heartbeat CPU 0 instructions: 40000003 cycles: 15424415 heartbeat IPC: 2.66927 cumulative IPC: 2.59329 (Simulation time: 0 hr 2 min 43 sec) 
Heartbeat CPU 0 instructions: 50000003 cycles: 18650741 heartbeat IPC: 3.0995 cumulative IPC: 2.68086 (Simulation time: 0 hr 3 min 19 sec) 

Warmup complete CPU 0 instructions: 50000003 cycles: 18650741 (Simulation time: 0 hr 3 min 19 sec) 

Heartbeat CPU 0 instructions: 60000002 cycles: 27092193 heartbeat IPC: 1.18463 cumulative IPC: 1.18463 (Simulation time: 0 hr 3 min 56 sec) 
Heartbeat CPU 0 instructions: 70000000 cycles: 35034509 heartbeat IPC: 1.25908 cumulative IPC: 1.22072 (Simulation time: 0 hr 4 min 32 sec) 
Heartbeat CPU 0 instructions: 80000001 cycles: 55891669 heartbeat IPC: 0.479452 cumulative IPC: 0.805565 (Simulation time: 0 hr 5 min 32 sec) 
Heartbeat CPU 0 instructions: 90000003 cycles: 70682689 heartbeat IPC: 0.676086 cumulative IPC: 0.768758 (Simulation time: 0 hr 6 min 16 sec) 
Heartbeat CPU 0 instructions: 100000003 cycles: 79203968 heartbeat IPC: 1.17353 cumulative IPC: 0.82572 (Simulation time: 0 hr 6 min 51 sec) 
Finished CPU 0 instructions: 50000000 cycles: 60553227 cumulative IPC: 0.82572 (Simulation time: 0 hr 6 min 51 sec) 

ChampSim completed all CPUs

Region of Interest Statistics

CPU 0 cumulative IPC: 0.82572 instructions: 50000000 cycles: 60553227
L1D TOTAL     ACCESS:   21610634  HIT:   17539584  MISS:    4071050
L1D LOAD      ACCESS:    8588924  HIT:    6570170  MISS:    2018754
L1D RFO       ACCESS:    4641936  HIT:    4535102  MISS:     106834
L1D PREFETCH  ACCESS:    8379774  HIT:    6434312  MISS:    1945462
L1D WRITEBACK ACCESS:          0  HIT:          0  MISS:          0
L1D PREFETCH  REQUESTED:    8623706  ISSUED:    8534583  USEFUL:     105844  USELESS:    1839609
L1D AVERAGE MISS LATENCY: 22.852 cycles
L1I TOTAL     ACCESS:   35998248  HIT:   34685158  MISS:    1313090
L1I LOAD      ACCESS:   10705295  HIT:   10606607  MISS:      98688
L1I RFO       ACCESS:          0  HIT:          0  MISS:          0
L1I PREFETCH  ACCESS:   25292953  HIT:   24078551  MISS:    1214402
L1I WRITEBACK ACCESS:          0  HIT:          0  MISS:          0
L1I PREFETCH  REQUESTED:   33907414  ISSUED:   33907414  USEFUL:     982431  USELESS:     231965
L1I AVERAGE MISS LATENCY: 37.5979 cycles
L2C TOTAL     ACCESS:    6883860  HIT:    5861166  MISS:    1022694
L2C LOAD      ACCESS:    2060732  HIT:    1824908  MISS:     235824
L2C RFO       ACCESS:     105599  HIT:      57414  MISS:      48185
L2C PREFETCH  ACCESS:    4472510  HIT:    3734826  MISS:     737684
L2C WRITEBACK ACCESS:     245019  HIT:     244018  MISS:       1001
L2C PREFETCH  REQUESTED:    6411181  ISSUED:    6408426  USEFUL:      27570  USELESS:     709697
L2C AVERAGE MISS LATENCY: 60.1035 cycles
LLC TOTAL     ACCESS:    2274719  HIT:    2040268  MISS:     234451
LLC LOAD      ACCESS:     235173  HIT:     194788  MISS:      40385
LLC RFO       ACCESS:      48179  HIT:      32662  MISS:      15517
LLC PREFETCH  ACCESS:    1852230  HIT:    1674096  MISS:     178134
LLC WRITEBACK ACCESS:     139137  HIT:     138722  MISS:        415
LLC PREFETCH  REQUESTED:          0  ISSUED:          0  USEFUL:      19448  USELESS:     159055
LLC AVERAGE MISS LATENCY: 176.108 cycles
Major fault: 0 Minor fault: 7596
CPU 0 L1I EPI prefetcher final stats
CPU 0 L1D next line prefetcher final stats

DRAM Statistics
 CHANNEL 0
 RQ ROW_BUFFER_HIT:      51811  ROW_BUFFER_MISS:     182192
 DBUS_CONGESTED:     101080
 WQ ROW_BUFFER_HIT:      10846  ROW_BUFFER_MISS:      43772  FULL:          0

 AVG_CONGESTED_CYCLE: 5

CPU 0 Branch Prediction Accuracy: 98.1603% MPKI: 3.89124 Average ROB Occupancy at Mispredict: 67.4502

Branch types
NOT_BRANCH: 39423755 78.8475%
BRANCH_DIRECT_JUMP: 551642 1.10328%
BRANCH_INDIRECT: 139368 0.278736%
BRANCH_CONDITIONAL: 7920858 15.8417%
BRANCH_DIRECT_CALL: 776072 1.55214%
BRANCH_INDIRECT_CALL: 194644 0.389288%
BRANCH_RETURN: 993311 1.98662%
BRANCH_OTHER: 0 0%

