Initialize SIGNATURE TABLE
ST_SET: 1
ST_WAY: 256
ST_TAG_BIT: 16
ST_TAG_MASK: ffff

Initialize PATTERN TABLE
PT_SET: 512
PT_WAY: 4
SIG_DELTA_BIT: 7
C_SIG_BIT: 4
C_DELTA_BIT: 4

Initialize PREFETCH FILTER
FILTER_SET: 1024

*** ChampSim Multicore Out-of-Order Simulator ***

Warmup Instructions: 50000000
Simulation Instructions: 50000000
Number of CPUs: 1
LLC sets: 2048
LLC ways: 16
Off-chip DRAM Size: 4096 MB Channels: 1 Width: 64-bit Data Rate: 3200 MT/s

CPU 0 runs /home/tapatil/CSE240C/SA1/ChampSim-master/ipc1_public/server_014.champsimtrace.xz
CPU 0 EPI prefetcher
CPU 0 L1D next line prefetcher
Heartbeat CPU 0 instructions: 10000003 cycles: 3519545 heartbeat IPC: 2.84128 cumulative IPC: 2.84128 (Simulation time: 0 hr 0 min 40 sec) 
Heartbeat CPU 0 instructions: 20000000 cycles: 7106305 heartbeat IPC: 2.78803 cumulative IPC: 2.8144 (Simulation time: 0 hr 1 min 21 sec) 
Heartbeat CPU 0 instructions: 30000001 cycles: 10647800 heartbeat IPC: 2.82367 cumulative IPC: 2.81748 (Simulation time: 0 hr 2 min 4 sec) 
Heartbeat CPU 0 instructions: 40000003 cycles: 14196022 heartbeat IPC: 2.81831 cumulative IPC: 2.81769 (Simulation time: 0 hr 2 min 46 sec) 
Heartbeat CPU 0 instructions: 50000000 cycles: 17744695 heartbeat IPC: 2.81795 cumulative IPC: 2.81774 (Simulation time: 0 hr 3 min 29 sec) 

Warmup complete CPU 0 instructions: 50000001 cycles: 17744696 (Simulation time: 0 hr 3 min 29 sec) 

Heartbeat CPU 0 instructions: 60000000 cycles: 24033642 heartbeat IPC: 1.59009 cumulative IPC: 1.59009 (Simulation time: 0 hr 4 min 14 sec) 
Heartbeat CPU 0 instructions: 70000003 cycles: 30325261 heartbeat IPC: 1.58942 cumulative IPC: 1.58975 (Simulation time: 0 hr 4 min 59 sec) 
*** Reached end of trace for Core: 0 Repeating trace: /home/tapatil/CSE240C/SA1/ChampSim-master/ipc1_public/server_014.champsimtrace.xz
Heartbeat CPU 0 instructions: 80000001 cycles: 36895391 heartbeat IPC: 1.52204 cumulative IPC: 1.56652 (Simulation time: 0 hr 5 min 42 sec) 
Heartbeat CPU 0 instructions: 90000003 cycles: 44394028 heartbeat IPC: 1.33358 cumulative IPC: 1.50098 (Simulation time: 0 hr 6 min 25 sec) 
Heartbeat CPU 0 instructions: 100000001 cycles: 50893195 heartbeat IPC: 1.53866 cumulative IPC: 1.50836 (Simulation time: 0 hr 7 min 9 sec) 
Finished CPU 0 instructions: 50000000 cycles: 33148499 cumulative IPC: 1.50836 (Simulation time: 0 hr 7 min 9 sec) 

ChampSim completed all CPUs

Region of Interest Statistics

CPU 0 cumulative IPC: 1.50836 instructions: 50000000 cycles: 33148499
L1D TOTAL     ACCESS:   21628900  HIT:   21558040  MISS:      70860
L1D LOAD      ACCESS:    6674415  HIT:    6647468  MISS:      26947
L1D RFO       ACCESS:    8412891  HIT:    8380822  MISS:      32069
L1D PREFETCH  ACCESS:    6541594  HIT:    6529750  MISS:      11844
L1D WRITEBACK ACCESS:          0  HIT:          0  MISS:          0
L1D PREFETCH  REQUESTED:    6678876  ISSUED:    6569463  USEFUL:       3290  USELESS:       8554
L1D AVERAGE MISS LATENCY: 228.969 cycles
L1I TOTAL     ACCESS:   40479700  HIT:   38212054  MISS:    2267646
L1I LOAD      ACCESS:    9728418  HIT:    9689497  MISS:      38921
L1I RFO       ACCESS:          0  HIT:          0  MISS:          0
L1I PREFETCH  ACCESS:   30751282  HIT:   28522557  MISS:    2228725
L1I WRITEBACK ACCESS:          0  HIT:          0  MISS:          0
L1I PREFETCH  REQUESTED:   37625484  ISSUED:   37625484  USEFUL:    1850010  USELESS:     378768
L1I AVERAGE MISS LATENCY: 15.0209 cycles
L2C TOTAL     ACCESS:    3259878  HIT:    3188338  MISS:      71540
L2C LOAD      ACCESS:      43509  HIT:      24951  MISS:      18558
L2C RFO       ACCESS:      32015  HIT:       1095  MISS:      30920
L2C PREFETCH  ACCESS:    3145987  HIT:    3123946  MISS:      22041
L2C WRITEBACK ACCESS:      38367  HIT:      38346  MISS:         21
L2C PREFETCH  REQUESTED:    2271838  ISSUED:    2271735  USEFUL:       1425  USELESS:      20330
L2C AVERAGE MISS LATENCY: 260.657 cycles
LLC TOTAL     ACCESS:     482605  HIT:     416366  MISS:      66239
LLC LOAD      ACCESS:      17330  HIT:       4880  MISS:      12450
LLC RFO       ACCESS:      30920  HIT:       4324  MISS:      26596
LLC PREFETCH  ACCESS:     399658  HIT:     372585  MISS:      27073
LLC WRITEBACK ACCESS:      34697  HIT:      34577  MISS:        120
LLC PREFETCH  REQUESTED:          0  ISSUED:          0  USEFUL:       4079  USELESS:      23611
LLC AVERAGE MISS LATENCY: 325.515 cycles
Major fault: 0 Minor fault: 1911
CPU 0 L1I EPI prefetcher final stats
CPU 0 L1D next line prefetcher final stats

DRAM Statistics
 CHANNEL 0
 RQ ROW_BUFFER_HIT:      29509  ROW_BUFFER_MISS:      36600
 DBUS_CONGESTED:      66962
 WQ ROW_BUFFER_HIT:       8235  ROW_BUFFER_MISS:      24057  FULL:          0

 AVG_CONGESTED_CYCLE: 6

CPU 0 Branch Prediction Accuracy: 99.7719% MPKI: 0.38824 Average ROB Occupancy at Mispredict: 156.153

Branch types
NOT_BRANCH: 41489011 82.978%
BRANCH_DIRECT_JUMP: 449417 0.898834%
BRANCH_INDIRECT: 2330 0.00466%
BRANCH_CONDITIONAL: 5470016 10.94%
BRANCH_DIRECT_CALL: 1172187 2.34437%
BRANCH_INDIRECT_CALL: 122383 0.244766%
BRANCH_RETURN: 1294554 2.58911%
BRANCH_OTHER: 0 0%

