Initialize SIGNATURE TABLE
ST_SET: 1
ST_WAY: 256
ST_TAG_BIT: 16
ST_TAG_MASK: ffff

Initialize PATTERN TABLE
PT_SET: 512
PT_WAY: 4
SIG_DELTA_BIT: 7
C_SIG_BIT: 4
C_DELTA_BIT: 4

Initialize PREFETCH FILTER
FILTER_SET: 1024

*** ChampSim Multicore Out-of-Order Simulator ***

Warmup Instructions: 50000000
Simulation Instructions: 50000000
Number of CPUs: 1
LLC sets: 2048
LLC ways: 16
Off-chip DRAM Size: 4096 MB Channels: 1 Width: 64-bit Data Rate: 3200 MT/s

CPU 0 runs /home/tapatil/CSE240C/SA1/ChampSim-master/ipc1_public/server_026.champsimtrace.xz
CPU 0 EPI prefetcher
CPU 0 L1D next line prefetcher
Heartbeat CPU 0 instructions: 10000000 cycles: 3524217 heartbeat IPC: 2.83751 cumulative IPC: 2.83751 (Simulation time: 0 hr 0 min 40 sec) 
Heartbeat CPU 0 instructions: 20000002 cycles: 7054188 heartbeat IPC: 2.83289 cumulative IPC: 2.8352 (Simulation time: 0 hr 1 min 20 sec) 
Heartbeat CPU 0 instructions: 30000000 cycles: 10574753 heartbeat IPC: 2.84045 cumulative IPC: 2.83695 (Simulation time: 0 hr 2 min 0 sec) 
Heartbeat CPU 0 instructions: 40000003 cycles: 14104130 heartbeat IPC: 2.83336 cumulative IPC: 2.83605 (Simulation time: 0 hr 2 min 41 sec) 
Heartbeat CPU 0 instructions: 50000000 cycles: 17626887 heartbeat IPC: 2.83868 cumulative IPC: 2.83658 (Simulation time: 0 hr 3 min 21 sec) 

Warmup complete CPU 0 instructions: 50000004 cycles: 17626888 (Simulation time: 0 hr 3 min 21 sec) 

*** Reached end of trace for Core: 0 Repeating trace: /home/tapatil/CSE240C/SA1/ChampSim-master/ipc1_public/server_026.champsimtrace.xz
Heartbeat CPU 0 instructions: 60000000 cycles: 24558112 heartbeat IPC: 1.44275 cumulative IPC: 1.44275 (Simulation time: 0 hr 4 min 4 sec) 
Heartbeat CPU 0 instructions: 70000003 cycles: 31370039 heartbeat IPC: 1.46801 cumulative IPC: 1.45527 (Simulation time: 0 hr 4 min 46 sec) 
Heartbeat CPU 0 instructions: 80000002 cycles: 38270741 heartbeat IPC: 1.44913 cumulative IPC: 1.45322 (Simulation time: 0 hr 5 min 29 sec) 
Heartbeat CPU 0 instructions: 90000002 cycles: 45077857 heartbeat IPC: 1.46905 cumulative IPC: 1.45714 (Simulation time: 0 hr 6 min 11 sec) 
Heartbeat CPU 0 instructions: 100000000 cycles: 51963149 heartbeat IPC: 1.45237 cumulative IPC: 1.45619 (Simulation time: 0 hr 6 min 53 sec) 
Finished CPU 0 instructions: 50000000 cycles: 34336262 cumulative IPC: 1.45619 (Simulation time: 0 hr 6 min 53 sec) 

ChampSim completed all CPUs

Region of Interest Statistics

CPU 0 cumulative IPC: 1.45619 instructions: 50000000 cycles: 34336262
L1D TOTAL     ACCESS:   19765794  HIT:   18120684  MISS:    1645110
L1D LOAD      ACCESS:    6929662  HIT:    6200028  MISS:     729634
L1D RFO       ACCESS:    6243492  HIT:    5956644  MISS:     286848
L1D PREFETCH  ACCESS:    6592640  HIT:    5964012  MISS:     628628
L1D WRITEBACK ACCESS:          0  HIT:          0  MISS:          0
L1D PREFETCH  REQUESTED:    6977213  ISSUED:    6834342  USEFUL:     150815  USELESS:     477823
L1D AVERAGE MISS LATENCY: 24.1469 cycles
L1I TOTAL     ACCESS:   29356975  HIT:   25820448  MISS:    3536527
L1I LOAD      ACCESS:    9503987  HIT:    9447676  MISS:      56311
L1I RFO       ACCESS:          0  HIT:          0  MISS:          0
L1I PREFETCH  ACCESS:   19852988  HIT:   16372772  MISS:    3480216
L1I WRITEBACK ACCESS:          0  HIT:          0  MISS:          0
L1I PREFETCH  REQUESTED:   25096958  ISSUED:   25096958  USEFUL:    2761327  USELESS:     718968
L1I AVERAGE MISS LATENCY: 18.7006 cycles
L2C TOTAL     ACCESS:    7128898  HIT:    6341029  MISS:     787869
L2C LOAD      ACCESS:     710777  HIT:     565195  MISS:     145582
L2C RFO       ACCESS:     284647  HIT:     187986  MISS:      96661
L2C PREFETCH  ACCESS:    5572330  HIT:    5030611  MISS:     541719
L2C WRITEBACK ACCESS:     561144  HIT:     557237  MISS:       3907
L2C PREFETCH  REQUESTED:    6177624  ISSUED:    6158649  USEFUL:      15074  USELESS:     526004
L2C AVERAGE MISS LATENCY: 39.0179 cycles
LLC TOTAL     ACCESS:    2575866  HIT:    2536761  MISS:      39105
LLC LOAD      ACCESS:     145283  HIT:     141682  MISS:       3601
LLC RFO       ACCESS:      96647  HIT:      81952  MISS:      14695
LLC PREFETCH  ACCESS:    2169812  HIT:    2149227  MISS:      20585
LLC WRITEBACK ACCESS:     164124  HIT:     163900  MISS:        224
LLC PREFETCH  REQUESTED:          0  ISSUED:          0  USEFUL:       1106  USELESS:      18657
LLC AVERAGE MISS LATENCY: 186.992 cycles
Major fault: 0 Minor fault: 2168
CPU 0 L1I EPI prefetcher final stats
CPU 0 L1D next line prefetcher final stats

DRAM Statistics
 CHANNEL 0
 RQ ROW_BUFFER_HIT:      13260  ROW_BUFFER_MISS:      25620
 DBUS_CONGESTED:      25066
 WQ ROW_BUFFER_HIT:       1656  ROW_BUFFER_MISS:      15056  FULL:          0

 AVG_CONGESTED_CYCLE: 6

CPU 0 Branch Prediction Accuracy: 99.822% MPKI: 0.32584 Average ROB Occupancy at Mispredict: 205.917

Branch types
NOT_BRANCH: 40848573 81.6971%
BRANCH_DIRECT_JUMP: 522045 1.04409%
BRANCH_INDIRECT: 204034 0.408068%
BRANCH_CONDITIONAL: 6212963 12.4259%
BRANCH_DIRECT_CALL: 932392 1.86478%
BRANCH_INDIRECT_CALL: 173764 0.347528%
BRANCH_RETURN: 1106152 2.2123%
BRANCH_OTHER: 0 0%

