Initialize SIGNATURE TABLE
ST_SET: 1
ST_WAY: 256
ST_TAG_BIT: 16
ST_TAG_MASK: ffff

Initialize PATTERN TABLE
PT_SET: 512
PT_WAY: 4
SIG_DELTA_BIT: 7
C_SIG_BIT: 4
C_DELTA_BIT: 4

Initialize PREFETCH FILTER
FILTER_SET: 1024

*** ChampSim Multicore Out-of-Order Simulator ***

Warmup Instructions: 50000000
Simulation Instructions: 50000000
Number of CPUs: 1
LLC sets: 2048
LLC ways: 16
Off-chip DRAM Size: 4096 MB Channels: 1 Width: 64-bit Data Rate: 3200 MT/s

CPU 0 runs /home/tapatil/CSE240C/SA1/ChampSim-master/ipc1_public/server_003.champsimtrace.xz
CPU 0 EPI prefetcher
CPU 0 L1D next line prefetcher
Heartbeat CPU 0 instructions: 10000002 cycles: 3221863 heartbeat IPC: 3.10379 cumulative IPC: 3.10379 (Simulation time: 0 hr 0 min 39 sec) 
Heartbeat CPU 0 instructions: 20000000 cycles: 6540283 heartbeat IPC: 3.01348 cumulative IPC: 3.05797 (Simulation time: 0 hr 1 min 16 sec) 
Heartbeat CPU 0 instructions: 30000000 cycles: 9749234 heartbeat IPC: 3.11628 cumulative IPC: 3.07716 (Simulation time: 0 hr 1 min 53 sec) 
Heartbeat CPU 0 instructions: 40000001 cycles: 13164768 heartbeat IPC: 2.9278 cumulative IPC: 3.03841 (Simulation time: 0 hr 2 min 35 sec) 
Heartbeat CPU 0 instructions: 50000002 cycles: 16883662 heartbeat IPC: 2.68897 cumulative IPC: 2.96144 (Simulation time: 0 hr 3 min 16 sec) 

Warmup complete CPU 0 instructions: 50000002 cycles: 16883662 (Simulation time: 0 hr 3 min 16 sec) 

Heartbeat CPU 0 instructions: 60000000 cycles: 25579129 heartbeat IPC: 1.15002 cumulative IPC: 1.15002 (Simulation time: 0 hr 3 min 56 sec) 
Heartbeat CPU 0 instructions: 70000003 cycles: 34507281 heartbeat IPC: 1.12005 cumulative IPC: 1.13484 (Simulation time: 0 hr 4 min 32 sec) 
Heartbeat CPU 0 instructions: 80000000 cycles: 44349681 heartbeat IPC: 1.01601 cumulative IPC: 1.09226 (Simulation time: 0 hr 5 min 9 sec) 
Heartbeat CPU 0 instructions: 90000003 cycles: 54243178 heartbeat IPC: 1.01077 cumulative IPC: 1.07068 (Simulation time: 0 hr 5 min 46 sec) 
Heartbeat CPU 0 instructions: 100000001 cycles: 64556343 heartbeat IPC: 0.969634 cumulative IPC: 1.04882 (Simulation time: 0 hr 6 min 24 sec) 
Finished CPU 0 instructions: 50000003 cycles: 47672682 cumulative IPC: 1.04882 (Simulation time: 0 hr 6 min 24 sec) 

ChampSim completed all CPUs

Region of Interest Statistics

CPU 0 cumulative IPC: 1.04882 instructions: 50000003 cycles: 47672682
L1D TOTAL     ACCESS:   19940459  HIT:   18799643  MISS:    1140816
L1D LOAD      ACCESS:    7825224  HIT:    7295029  MISS:     530195
L1D RFO       ACCESS:    4550253  HIT:    4432935  MISS:     117318
L1D PREFETCH  ACCESS:    7564982  HIT:    7071679  MISS:     493303
L1D WRITEBACK ACCESS:          0  HIT:          0  MISS:          0
L1D PREFETCH  REQUESTED:    7884518  ISSUED:    7793049  USEFUL:     155069  USELESS:     338193
L1D AVERAGE MISS LATENCY: 55.144 cycles
L1I TOTAL     ACCESS:   35280474  HIT:   33941104  MISS:    1339370
L1I LOAD      ACCESS:    9290916  HIT:    9214112  MISS:      76804
L1I RFO       ACCESS:          0  HIT:          0  MISS:          0
L1I PREFETCH  ACCESS:   25989558  HIT:   24726992  MISS:    1262566
L1I WRITEBACK ACCESS:          0  HIT:          0  MISS:          0
L1I PREFETCH  REQUESTED:   34010407  ISSUED:   34010407  USEFUL:     876636  USELESS:     385960
L1I AVERAGE MISS LATENCY: 39.116 cycles
L2C TOTAL     ACCESS:    3331838  HIT:    2358118  MISS:     973720
L2C LOAD      ACCESS:     557609  HIT:     311959  MISS:     245650
L2C RFO       ACCESS:     114686  HIT:      40383  MISS:      74303
L2C PREFETCH  ACCESS:    2375284  HIT:    1722571  MISS:     652713
L2C WRITEBACK ACCESS:     284259  HIT:     283205  MISS:       1054
L2C PREFETCH  REQUESTED:    2800961  ISSUED:    2797193  USEFUL:      30033  USELESS:     620037
L2C AVERAGE MISS LATENCY: 82.6912 cycles
LLC TOTAL     ACCESS:    1880208  HIT:    1508488  MISS:     371720
LLC LOAD      ACCESS:     243141  HIT:     178099  MISS:      65042
LLC RFO       ACCESS:      74302  HIT:      32693  MISS:      41609
LLC PREFETCH  ACCESS:    1397991  HIT:    1134330  MISS:     263661
LLC WRITEBACK ACCESS:     164774  HIT:     163366  MISS:       1408
LLC PREFETCH  REQUESTED:          0  ISSUED:          0  USEFUL:      31106  USELESS:     221427
LLC AVERAGE MISS LATENCY: 193.233 cycles
Major fault: 0 Minor fault: 7776
CPU 0 L1I EPI prefetcher final stats
CPU 0 L1D next line prefetcher final stats

DRAM Statistics
 CHANNEL 0
 RQ ROW_BUFFER_HIT:      85450  ROW_BUFFER_MISS:     284798
 DBUS_CONGESTED:     191900
 WQ ROW_BUFFER_HIT:      22372  ROW_BUFFER_MISS:      80402  FULL:          0

 AVG_CONGESTED_CYCLE: 5

CPU 0 Branch Prediction Accuracy: 95.439% MPKI: 9.02702 Average ROB Occupancy at Mispredict: 70.0953

Branch types
NOT_BRANCH: 40104089 80.2082%
BRANCH_DIRECT_JUMP: 497928 0.995856%
BRANCH_INDIRECT: 130587 0.261174%
BRANCH_CONDITIONAL: 7219018 14.438%
BRANCH_DIRECT_CALL: 625807 1.25161%
BRANCH_INDIRECT_CALL: 389787 0.779574%
BRANCH_RETURN: 1032747 2.06549%
BRANCH_OTHER: 0 0%

