Initialize SIGNATURE TABLE
ST_SET: 1
ST_WAY: 256
ST_TAG_BIT: 16
ST_TAG_MASK: ffff

Initialize PATTERN TABLE
PT_SET: 512
PT_WAY: 4
SIG_DELTA_BIT: 7
C_SIG_BIT: 4
C_DELTA_BIT: 4

Initialize PREFETCH FILTER
FILTER_SET: 1024

*** ChampSim Multicore Out-of-Order Simulator ***

Warmup Instructions: 50000000
Simulation Instructions: 50000000
Number of CPUs: 1
LLC sets: 2048
LLC ways: 16
Off-chip DRAM Size: 4096 MB Channels: 1 Width: 64-bit Data Rate: 3200 MT/s

CPU 0 runs /home/tapatil/CSE240C/SA1/ChampSim-master/ipc1_public/server_039.champsimtrace.xz
L1I D-JOLT instruction prefetcher has been constructed!
CPU 0 L1D next line prefetcher
Heartbeat CPU 0 instructions: 10000003 cycles: 3451652 heartbeat IPC: 2.89716 cumulative IPC: 2.89716 (Simulation time: 0 hr 0 min 34 sec) 
Heartbeat CPU 0 instructions: 20000002 cycles: 6896307 heartbeat IPC: 2.90305 cumulative IPC: 2.9001 (Simulation time: 0 hr 1 min 8 sec) 
Heartbeat CPU 0 instructions: 30000001 cycles: 10342780 heartbeat IPC: 2.90152 cumulative IPC: 2.90057 (Simulation time: 0 hr 1 min 42 sec) 
Heartbeat CPU 0 instructions: 40000002 cycles: 13784639 heartbeat IPC: 2.90541 cumulative IPC: 2.90178 (Simulation time: 0 hr 2 min 16 sec) 
Heartbeat CPU 0 instructions: 50000001 cycles: 17225884 heartbeat IPC: 2.90592 cumulative IPC: 2.90261 (Simulation time: 0 hr 2 min 50 sec) 

Warmup complete CPU 0 instructions: 50000001 cycles: 17225884 (Simulation time: 0 hr 2 min 50 sec) 

Heartbeat CPU 0 instructions: 60000000 cycles: 23000447 heartbeat IPC: 1.73173 cumulative IPC: 1.73173 (Simulation time: 0 hr 3 min 26 sec) 
Heartbeat CPU 0 instructions: 70000000 cycles: 28772758 heartbeat IPC: 1.73241 cumulative IPC: 1.73207 (Simulation time: 0 hr 4 min 1 sec) 
Heartbeat CPU 0 instructions: 80000000 cycles: 34541184 heartbeat IPC: 1.73358 cumulative IPC: 1.73257 (Simulation time: 0 hr 4 min 36 sec) 
Heartbeat CPU 0 instructions: 90000001 cycles: 40314995 heartbeat IPC: 1.73196 cumulative IPC: 1.73242 (Simulation time: 0 hr 5 min 12 sec) 
Heartbeat CPU 0 instructions: 100000002 cycles: 46096826 heartbeat IPC: 1.72956 cumulative IPC: 1.73185 (Simulation time: 0 hr 5 min 47 sec) 
Finished CPU 0 instructions: 50000001 cycles: 28870942 cumulative IPC: 1.73185 (Simulation time: 0 hr 5 min 47 sec) 

ChampSim completed all CPUs

Region of Interest Statistics

CPU 0 cumulative IPC: 1.73185 instructions: 50000001 cycles: 28870942
L1D TOTAL     ACCESS:   19886695  HIT:   19392018  MISS:     494677
L1D LOAD      ACCESS:    6492068  HIT:    6270468  MISS:     221600
L1D RFO       ACCESS:    7088908  HIT:    7021963  MISS:      66945
L1D PREFETCH  ACCESS:    6305719  HIT:    6099587  MISS:     206132
L1D WRITEBACK ACCESS:          0  HIT:          0  MISS:          0
L1D PREFETCH  REQUESTED:    6508035  ISSUED:    6374694  USEFUL:      49994  USELESS:     156142
L1D AVERAGE MISS LATENCY: 15.0723 cycles
L1I TOTAL     ACCESS:   19156534  HIT:   13988291  MISS:    5168243
L1I LOAD      ACCESS:    9291936  HIT:    9201868  MISS:      90068
L1I RFO       ACCESS:          0  HIT:          0  MISS:          0
L1I PREFETCH  ACCESS:    9864598  HIT:    4786423  MISS:    5078175
L1I WRITEBACK ACCESS:          0  HIT:          0  MISS:          0
L1I PREFETCH  REQUESTED:   10560468  ISSUED:   10245110  USEFUL:    4176165  USELESS:     902001
L1I AVERAGE MISS LATENCY: 14.5922 cycles
L2C TOTAL     ACCESS:    8151361  HIT:    8151283  MISS:         78
L2C LOAD      ACCESS:     289837  HIT:     289831  MISS:          6
L2C RFO       ACCESS:      66752  HIT:      66752  MISS:          0
L2C PREFETCH  ACCESS:    7614742  HIT:    7614673  MISS:         69
L2C WRITEBACK ACCESS:     180030  HIT:     180027  MISS:          3
L2C PREFETCH  REQUESTED:    5339103  ISSUED:    5337329  USEFUL:          1  USELESS:          4
L2C AVERAGE MISS LATENCY: 55.2308 cycles
LLC TOTAL     ACCESS:     706696  HIT:     706352  MISS:        344
LLC LOAD      ACCESS:          6  HIT:          5  MISS:          1
LLC RFO       ACCESS:          0  HIT:          0  MISS:          0
LLC PREFETCH  ACCESS:     706685  HIT:     706342  MISS:        343
LLC WRITEBACK ACCESS:          5  HIT:          5  MISS:          0
LLC PREFETCH  REQUESTED:          0  ISSUED:          0  USEFUL:          2  USELESS:          0
LLC AVERAGE MISS LATENCY: 170.584 cycles
Major fault: 0 Minor fault: 357
CPU 0 L1D next line prefetcher final stats

DRAM Statistics
 CHANNEL 0
 RQ ROW_BUFFER_HIT:         38  ROW_BUFFER_MISS:        306
 DBUS_CONGESTED:         33
 WQ ROW_BUFFER_HIT:          0  ROW_BUFFER_MISS:          0  FULL:          0

 AVG_CONGESTED_CYCLE: 6

CPU 0 Branch Prediction Accuracy: 99.9091% MPKI: 0.1547 Average ROB Occupancy at Mispredict: 303.825

Branch types
NOT_BRANCH: 41494970 82.9899%
BRANCH_DIRECT_JUMP: 491308 0.982616%
BRANCH_INDIRECT: 0 0%
BRANCH_CONDITIONAL: 5595255 11.1905%
BRANCH_DIRECT_CALL: 1028408 2.05682%
BRANCH_INDIRECT_CALL: 180756 0.361512%
BRANCH_RETURN: 1209171 2.41834%
BRANCH_OTHER: 0 0%

