Initialize SIGNATURE TABLE
ST_SET: 1
ST_WAY: 256
ST_TAG_BIT: 16
ST_TAG_MASK: ffff

Initialize PATTERN TABLE
PT_SET: 512
PT_WAY: 4
SIG_DELTA_BIT: 7
C_SIG_BIT: 4
C_DELTA_BIT: 4

Initialize PREFETCH FILTER
FILTER_SET: 1024

*** ChampSim Multicore Out-of-Order Simulator ***

Warmup Instructions: 50000000
Simulation Instructions: 50000000
Number of CPUs: 1
LLC sets: 2048
LLC ways: 16
Off-chip DRAM Size: 4096 MB Channels: 1 Width: 64-bit Data Rate: 3200 MT/s

CPU 0 runs /home/tapatil/CSE240C/SA1/ChampSim-master/ipc1_public/server_001.champsimtrace.xz
CPU 0 EPI prefetcher
CPU 0 L1D next line prefetcher
Heartbeat CPU 0 instructions: 10000002 cycles: 3155527 heartbeat IPC: 3.16904 cumulative IPC: 3.16904 (Simulation time: 0 hr 0 min 33 sec) 
Heartbeat CPU 0 instructions: 20000000 cycles: 6370743 heartbeat IPC: 3.11021 cumulative IPC: 3.13935 (Simulation time: 0 hr 1 min 8 sec) 
Heartbeat CPU 0 instructions: 30000003 cycles: 9557663 heartbeat IPC: 3.13783 cumulative IPC: 3.13884 (Simulation time: 0 hr 1 min 43 sec) 
Heartbeat CPU 0 instructions: 40000002 cycles: 12765755 heartbeat IPC: 3.11712 cumulative IPC: 3.13338 (Simulation time: 0 hr 2 min 19 sec) 
Heartbeat CPU 0 instructions: 50000003 cycles: 15985513 heartbeat IPC: 3.10582 cumulative IPC: 3.12783 (Simulation time: 0 hr 2 min 55 sec) 

Warmup complete CPU 0 instructions: 50000003 cycles: 15985513 (Simulation time: 0 hr 2 min 55 sec) 

Heartbeat CPU 0 instructions: 60000000 cycles: 23059418 heartbeat IPC: 1.41365 cumulative IPC: 1.41365 (Simulation time: 0 hr 3 min 29 sec) 
Heartbeat CPU 0 instructions: 70000001 cycles: 29884570 heartbeat IPC: 1.46517 cumulative IPC: 1.43895 (Simulation time: 0 hr 4 min 6 sec) 
Heartbeat CPU 0 instructions: 80000002 cycles: 36677079 heartbeat IPC: 1.47221 cumulative IPC: 1.44987 (Simulation time: 0 hr 4 min 43 sec) 
Heartbeat CPU 0 instructions: 90000002 cycles: 43775132 heartbeat IPC: 1.40884 cumulative IPC: 1.43939 (Simulation time: 0 hr 5 min 20 sec) 
Heartbeat CPU 0 instructions: 100000003 cycles: 50525333 heartbeat IPC: 1.48144 cumulative IPC: 1.4476 (Simulation time: 0 hr 5 min 56 sec) 
Finished CPU 0 instructions: 50000000 cycles: 34539820 cumulative IPC: 1.4476 (Simulation time: 0 hr 5 min 56 sec) 

ChampSim completed all CPUs

Region of Interest Statistics

CPU 0 cumulative IPC: 1.4476 instructions: 50000000 cycles: 34539820
L1D TOTAL     ACCESS:   17603480  HIT:   17092392  MISS:     511088
L1D LOAD      ACCESS:    6438173  HIT:    6233626  MISS:     204547
L1D RFO       ACCESS:    5051510  HIT:    4968914  MISS:      82596
L1D PREFETCH  ACCESS:    6113797  HIT:    5889852  MISS:     223945
L1D WRITEBACK ACCESS:          0  HIT:          0  MISS:          0
L1D PREFETCH  REQUESTED:    6466881  ISSUED:    6289795  USEFUL:     132234  USELESS:      91839
L1D AVERAGE MISS LATENCY: 96.5586 cycles
L1I TOTAL     ACCESS:   36578500  HIT:   35903271  MISS:     675229
L1I LOAD      ACCESS:    8247439  HIT:    8222905  MISS:      24534
L1I RFO       ACCESS:          0  HIT:          0  MISS:          0
L1I PREFETCH  ACCESS:   28331061  HIT:   27680366  MISS:     650695
L1I WRITEBACK ACCESS:          0  HIT:          0  MISS:          0
L1I PREFETCH  REQUESTED:   35553377  ISSUED:   35553377  USEFUL:     510392  USELESS:     140408
L1I AVERAGE MISS LATENCY: 41.4989 cycles
L2C TOTAL     ACCESS:    1785984  HIT:    1307147  MISS:     478837
L2C LOAD      ACCESS:     180411  HIT:      88368  MISS:      92043
L2C RFO       ACCESS:      80894  HIT:      10107  MISS:      70787
L2C PREFETCH  ACCESS:    1316823  HIT:    1001318  MISS:     315505
L2C WRITEBACK ACCESS:     207856  HIT:     207354  MISS:        502
L2C PREFETCH  REQUESTED:    1846583  ISSUED:    1841905  USEFUL:      22228  USELESS:     293127
L2C AVERAGE MISS LATENCY: 132.253 cycles
LLC TOTAL     ACCESS:    1184552  HIT:     842201  MISS:     342351
LLC LOAD      ACCESS:      91297  HIT:      60705  MISS:      30592
LLC RFO       ACCESS:      70785  HIT:       7003  MISS:      63782
LLC PREFETCH  ACCESS:     854831  HIT:     607215  MISS:     247616
LLC WRITEBACK ACCESS:     167639  HIT:     167278  MISS:        361
LLC PREFETCH  REQUESTED:          0  ISSUED:          0  USEFUL:      25823  USELESS:     217037
LLC AVERAGE MISS LATENCY: 240.949 cycles
Major fault: 0 Minor fault: 16706
CPU 0 L1I EPI prefetcher final stats
CPU 0 L1D next line prefetcher final stats

DRAM Statistics
 CHANNEL 0
 RQ ROW_BUFFER_HIT:     107766  ROW_BUFFER_MISS:     234183
 DBUS_CONGESTED:     233692
 WQ ROW_BUFFER_HIT:      34508  ROW_BUFFER_MISS:     124740  FULL:          0

 AVG_CONGESTED_CYCLE: 6

CPU 0 Branch Prediction Accuracy: 99.5889% MPKI: 0.70108 Average ROB Occupancy at Mispredict: 117.254

Branch types
NOT_BRANCH: 41473577 82.9472%
BRANCH_DIRECT_JUMP: 347941 0.695882%
BRANCH_INDIRECT: 148212 0.296424%
BRANCH_CONDITIONAL: 6817277 13.6346%
BRANCH_DIRECT_CALL: 570724 1.14145%
BRANCH_INDIRECT_CALL: 25133 0.050266%
BRANCH_RETURN: 617123 1.23425%
BRANCH_OTHER: 0 0%

