Initialize SIGNATURE TABLE
ST_SET: 1
ST_WAY: 256
ST_TAG_BIT: 16
ST_TAG_MASK: ffff

Initialize PATTERN TABLE
PT_SET: 512
PT_WAY: 4
SIG_DELTA_BIT: 7
C_SIG_BIT: 4
C_DELTA_BIT: 4

Initialize PREFETCH FILTER
FILTER_SET: 1024

*** ChampSim Multicore Out-of-Order Simulator ***

Warmup Instructions: 50000000
Simulation Instructions: 50000000
Number of CPUs: 1
LLC sets: 2048
LLC ways: 16
Off-chip DRAM Size: 4096 MB Channels: 1 Width: 64-bit Data Rate: 3200 MT/s

CPU 0 runs /home/tapatil/CSE240C/SA1/ChampSim-master/ipc1_public/server_027.champsimtrace.xz
L1I D-JOLT instruction prefetcher has been constructed!
CPU 0 L1D next line prefetcher
Heartbeat CPU 0 instructions: 10000001 cycles: 3525055 heartbeat IPC: 2.83684 cumulative IPC: 2.83684 (Simulation time: 0 hr 0 min 34 sec) 
Heartbeat CPU 0 instructions: 20000001 cycles: 7054890 heartbeat IPC: 2.83299 cumulative IPC: 2.83491 (Simulation time: 0 hr 1 min 9 sec) 
Heartbeat CPU 0 instructions: 30000002 cycles: 10579814 heartbeat IPC: 2.83694 cumulative IPC: 2.83559 (Simulation time: 0 hr 1 min 43 sec) 
Heartbeat CPU 0 instructions: 40000000 cycles: 14110710 heartbeat IPC: 2.83214 cumulative IPC: 2.83473 (Simulation time: 0 hr 2 min 18 sec) 
Heartbeat CPU 0 instructions: 50000001 cycles: 17635465 heartbeat IPC: 2.83708 cumulative IPC: 2.8352 (Simulation time: 0 hr 2 min 53 sec) 

Warmup complete CPU 0 instructions: 50000001 cycles: 17635465 (Simulation time: 0 hr 2 min 53 sec) 

Heartbeat CPU 0 instructions: 60000002 cycles: 24492542 heartbeat IPC: 1.45835 cumulative IPC: 1.45835 (Simulation time: 0 hr 3 min 29 sec) 
Heartbeat CPU 0 instructions: 70000003 cycles: 31312702 heartbeat IPC: 1.46624 cumulative IPC: 1.46228 (Simulation time: 0 hr 4 min 6 sec) 
Heartbeat CPU 0 instructions: 80000002 cycles: 38140607 heartbeat IPC: 1.46458 cumulative IPC: 1.46305 (Simulation time: 0 hr 4 min 44 sec) 
Heartbeat CPU 0 instructions: 90000001 cycles: 45049122 heartbeat IPC: 1.44749 cumulative IPC: 1.45913 (Simulation time: 0 hr 5 min 20 sec) 
Heartbeat CPU 0 instructions: 100000002 cycles: 51841094 heartbeat IPC: 1.47233 cumulative IPC: 1.46175 (Simulation time: 0 hr 5 min 57 sec) 
Finished CPU 0 instructions: 50000001 cycles: 34205629 cumulative IPC: 1.46175 (Simulation time: 0 hr 5 min 57 sec) 

ChampSim completed all CPUs

Region of Interest Statistics

CPU 0 cumulative IPC: 1.46175 instructions: 50000001 cycles: 34205629
L1D TOTAL     ACCESS:   19870087  HIT:   18268436  MISS:    1601651
L1D LOAD      ACCESS:    6936587  HIT:    6244309  MISS:     692278
L1D RFO       ACCESS:    6286080  HIT:    6001052  MISS:     285028
L1D PREFETCH  ACCESS:    6647420  HIT:    6023075  MISS:     624345
L1D WRITEBACK ACCESS:          0  HIT:          0  MISS:          0
L1D PREFETCH  REQUESTED:    6981638  ISSUED:    6854477  USEFUL:     149424  USELESS:     474932
L1D AVERAGE MISS LATENCY: 24.1157 cycles
L1I TOTAL     ACCESS:   15960172  HIT:   12672964  MISS:    3287208
L1I LOAD      ACCESS:    9493333  HIT:    9446001  MISS:      47332
L1I RFO       ACCESS:          0  HIT:          0  MISS:          0
L1I PREFETCH  ACCESS:    6466839  HIT:    3226963  MISS:    3239876
L1I WRITEBACK ACCESS:          0  HIT:          0  MISS:          0
L1I PREFETCH  REQUESTED:    6819192  ISSUED:    6748116  USEFUL:    2764972  USELESS:     474933
L1I AVERAGE MISS LATENCY: 20.308 cycles
L2C TOTAL     ACCESS:    6737707  HIT:    5791397  MISS:     946310
L2C LOAD      ACCESS:     703171  HIT:     555262  MISS:     147909
L2C RFO       ACCESS:     283539  HIT:     192894  MISS:      90645
L2C PREFETCH  ACCESS:    5191792  HIT:    4489317  MISS:     702475
L2C WRITEBACK ACCESS:     559205  HIT:     553924  MISS:       5281
L2C PREFETCH  REQUESTED:    4469882  ISSUED:    4465372  USEFUL:      11156  USELESS:     691113
L2C AVERAGE MISS LATENCY: 36.9918 cycles
LLC TOTAL     ACCESS:    2391560  HIT:    2357126  MISS:      34434
LLC LOAD      ACCESS:     147702  HIT:     144122  MISS:       3580
LLC RFO       ACCESS:      90640  HIT:      76701  MISS:      13939
LLC PREFETCH  ACCESS:    1991129  HIT:    1974399  MISS:      16730
LLC WRITEBACK ACCESS:     162089  HIT:     161904  MISS:        185
LLC PREFETCH  REQUESTED:          0  ISSUED:          0  USEFUL:       1302  USELESS:      14934
LLC AVERAGE MISS LATENCY: 181.37 cycles
Major fault: 0 Minor fault: 2483
CPU 0 L1D next line prefetcher final stats

DRAM Statistics
 CHANNEL 0
 RQ ROW_BUFFER_HIT:      11196  ROW_BUFFER_MISS:      23053
 DBUS_CONGESTED:      22642
 WQ ROW_BUFFER_HIT:       1640  ROW_BUFFER_MISS:      14612  FULL:          0

 AVG_CONGESTED_CYCLE: 6

CPU 0 Branch Prediction Accuracy: 99.8082% MPKI: 0.35064 Average ROB Occupancy at Mispredict: 186.926

Branch types
NOT_BRANCH: 40857507 81.715%
BRANCH_DIRECT_JUMP: 526635 1.05327%
BRANCH_INDIRECT: 205902 0.411804%
BRANCH_CONDITIONAL: 6184050 12.3681%
BRANCH_DIRECT_CALL: 938468 1.87694%
BRANCH_INDIRECT_CALL: 174486 0.348972%
BRANCH_RETURN: 1112959 2.22592%
BRANCH_OTHER: 0 0%

