Initialize SIGNATURE TABLE
ST_SET: 1
ST_WAY: 256
ST_TAG_BIT: 16
ST_TAG_MASK: ffff

Initialize PATTERN TABLE
PT_SET: 512
PT_WAY: 4
SIG_DELTA_BIT: 7
C_SIG_BIT: 4
C_DELTA_BIT: 4

Initialize PREFETCH FILTER
FILTER_SET: 1024

*** ChampSim Multicore Out-of-Order Simulator ***

Warmup Instructions: 50000000
Simulation Instructions: 50000000
Number of CPUs: 1
LLC sets: 2048
LLC ways: 16
Off-chip DRAM Size: 4096 MB Channels: 1 Width: 64-bit Data Rate: 3200 MT/s

CPU 0 runs /home/tapatil/CSE240C/SA1/ChampSim-master/ipc1_public/server_036.champsimtrace.xz
CPU 0 EPI prefetcher
CPU 0 L1D next line prefetcher
Heartbeat CPU 0 instructions: 10000000 cycles: 3458971 heartbeat IPC: 2.89103 cumulative IPC: 2.89103 (Simulation time: 0 hr 0 min 40 sec) 
Heartbeat CPU 0 instructions: 20000000 cycles: 6924762 heartbeat IPC: 2.88534 cumulative IPC: 2.88819 (Simulation time: 0 hr 1 min 21 sec) 
Heartbeat CPU 0 instructions: 30000003 cycles: 10432767 heartbeat IPC: 2.85062 cumulative IPC: 2.87556 (Simulation time: 0 hr 2 min 2 sec) 
Heartbeat CPU 0 instructions: 40000000 cycles: 13895288 heartbeat IPC: 2.88807 cumulative IPC: 2.87867 (Simulation time: 0 hr 2 min 43 sec) 
Heartbeat CPU 0 instructions: 50000002 cycles: 17356994 heartbeat IPC: 2.88875 cumulative IPC: 2.88068 (Simulation time: 0 hr 3 min 25 sec) 

Warmup complete CPU 0 instructions: 50000002 cycles: 17356994 (Simulation time: 0 hr 3 min 25 sec) 

Heartbeat CPU 0 instructions: 60000000 cycles: 22933848 heartbeat IPC: 1.79313 cumulative IPC: 1.79313 (Simulation time: 0 hr 4 min 5 sec) 
Heartbeat CPU 0 instructions: 70000001 cycles: 28456723 heartbeat IPC: 1.81065 cumulative IPC: 1.80185 (Simulation time: 0 hr 4 min 44 sec) 
Heartbeat CPU 0 instructions: 80000001 cycles: 34014515 heartbeat IPC: 1.79928 cumulative IPC: 1.80099 (Simulation time: 0 hr 5 min 23 sec) 
Heartbeat CPU 0 instructions: 90000002 cycles: 39545378 heartbeat IPC: 1.80804 cumulative IPC: 1.80275 (Simulation time: 0 hr 6 min 3 sec) 
Heartbeat CPU 0 instructions: 100000001 cycles: 45063197 heartbeat IPC: 1.81231 cumulative IPC: 1.80465 (Simulation time: 0 hr 6 min 42 sec) 
Finished CPU 0 instructions: 50000003 cycles: 27706204 cumulative IPC: 1.80465 (Simulation time: 0 hr 6 min 42 sec) 

ChampSim completed all CPUs

Region of Interest Statistics

CPU 0 cumulative IPC: 1.80465 instructions: 50000003 cycles: 27706204
L1D TOTAL     ACCESS:   20412666  HIT:   20352454  MISS:      60212
L1D LOAD      ACCESS:    6638187  HIT:    6603354  MISS:      34833
L1D RFO       ACCESS:    7343003  HIT:    7335780  MISS:       7223
L1D PREFETCH  ACCESS:    6431476  HIT:    6413320  MISS:      18156
L1D WRITEBACK ACCESS:          0  HIT:          0  MISS:          0
L1D PREFETCH  REQUESTED:    6639157  ISSUED:    6461448  USEFUL:       5463  USELESS:      12694
L1D AVERAGE MISS LATENCY: 18.113 cycles
L1I TOTAL     ACCESS:   32710450  HIT:   28814826  MISS:    3895624
L1I LOAD      ACCESS:    8961559  HIT:    8944983  MISS:      16576
L1I RFO       ACCESS:          0  HIT:          0  MISS:          0
L1I PREFETCH  ACCESS:   23748891  HIT:   19869843  MISS:    3879048
L1I WRITEBACK ACCESS:          0  HIT:          0  MISS:          0
L1I PREFETCH  REQUESTED:   29149569  ISSUED:   29149569  USEFUL:    3660753  USELESS:     218333
L1I AVERAGE MISS LATENCY: 14.8144 cycles
L2C TOTAL     ACCESS:    6055864  HIT:    6053620  MISS:       2244
L2C LOAD      ACCESS:      42490  HIT:      42150  MISS:        340
L2C RFO       ACCESS:       7216  HIT:       7157  MISS:         59
L2C PREFETCH  ACCESS:    5990527  HIT:    5988705  MISS:       1822
L2C WRITEBACK ACCESS:      15631  HIT:      15608  MISS:         23
L2C PREFETCH  REQUESTED:    6342495  ISSUED:    6339458  USEFUL:        173  USELESS:        954
L2C AVERAGE MISS LATENCY: 183.458 cycles
LLC TOTAL     ACCESS:     807997  HIT:     804904  MISS:       3093
LLC LOAD      ACCESS:        340  HIT:        113  MISS:        227
LLC RFO       ACCESS:         59  HIT:         29  MISS:         30
LLC PREFETCH  ACCESS:     806600  HIT:     803767  MISS:       2833
LLC WRITEBACK ACCESS:        998  HIT:        995  MISS:          3
LLC PREFETCH  REQUESTED:          0  ISSUED:          0  USEFUL:         47  USELESS:        657
LLC AVERAGE MISS LATENCY: 370.068 cycles
Major fault: 0 Minor fault: 1926
CPU 0 L1I EPI prefetcher final stats
CPU 0 L1D next line prefetcher final stats

DRAM Statistics
 CHANNEL 0
 RQ ROW_BUFFER_HIT:        778  ROW_BUFFER_MISS:       2312
 DBUS_CONGESTED:       2162
 WQ ROW_BUFFER_HIT:        276  ROW_BUFFER_MISS:       1789  FULL:          0

 AVG_CONGESTED_CYCLE: 6

CPU 0 Branch Prediction Accuracy: 99.8717% MPKI: 0.21174 Average ROB Occupancy at Mispredict: 236.544

Branch types
NOT_BRANCH: 41748444 83.4969%
BRANCH_DIRECT_JUMP: 468564 0.937128%
BRANCH_INDIRECT: 0 0%
BRANCH_CONDITIONAL: 5599754 11.1995%
BRANCH_DIRECT_CALL: 885105 1.77021%
BRANCH_INDIRECT_CALL: 206338 0.412676%
BRANCH_RETURN: 1091468 2.18294%
BRANCH_OTHER: 0 0%

