Initialize SIGNATURE TABLE
ST_SET: 1
ST_WAY: 256
ST_TAG_BIT: 16
ST_TAG_MASK: ffff

Initialize PATTERN TABLE
PT_SET: 512
PT_WAY: 4
SIG_DELTA_BIT: 7
C_SIG_BIT: 4
C_DELTA_BIT: 4

Initialize PREFETCH FILTER
FILTER_SET: 1024

*** ChampSim Multicore Out-of-Order Simulator ***

Warmup Instructions: 50000000
Simulation Instructions: 50000000
Number of CPUs: 1
LLC sets: 2048
LLC ways: 16
Off-chip DRAM Size: 4096 MB Channels: 1 Width: 64-bit Data Rate: 3200 MT/s

CPU 0 runs /home/tapatil/CSE240C/SA1/ChampSim-master/ipc1_public/server_032.champsimtrace.xz
L1I D-JOLT instruction prefetcher has been constructed!
CPU 0 L1D next line prefetcher
Heartbeat CPU 0 instructions: 10000002 cycles: 3521174 heartbeat IPC: 2.83996 cumulative IPC: 2.83996 (Simulation time: 0 hr 0 min 34 sec) 
Heartbeat CPU 0 instructions: 20000003 cycles: 7043476 heartbeat IPC: 2.83905 cumulative IPC: 2.83951 (Simulation time: 0 hr 1 min 8 sec) 
Heartbeat CPU 0 instructions: 30000000 cycles: 10565592 heartbeat IPC: 2.8392 cumulative IPC: 2.83941 (Simulation time: 0 hr 1 min 42 sec) 
Heartbeat CPU 0 instructions: 40000003 cycles: 14088906 heartbeat IPC: 2.83824 cumulative IPC: 2.83911 (Simulation time: 0 hr 2 min 16 sec) 
Heartbeat CPU 0 instructions: 50000000 cycles: 17610947 heartbeat IPC: 2.83926 cumulative IPC: 2.83914 (Simulation time: 0 hr 2 min 50 sec) 

Warmup complete CPU 0 instructions: 50000004 cycles: 17610948 (Simulation time: 0 hr 2 min 50 sec) 

Heartbeat CPU 0 instructions: 60000002 cycles: 24297062 heartbeat IPC: 1.49564 cumulative IPC: 1.49564 (Simulation time: 0 hr 3 min 27 sec) 
Heartbeat CPU 0 instructions: 70000000 cycles: 30978753 heartbeat IPC: 1.49663 cumulative IPC: 1.49613 (Simulation time: 0 hr 4 min 3 sec) 
*** Reached end of trace for Core: 0 Repeating trace: /home/tapatil/CSE240C/SA1/ChampSim-master/ipc1_public/server_032.champsimtrace.xz
Heartbeat CPU 0 instructions: 80000003 cycles: 37658078 heartbeat IPC: 1.49716 cumulative IPC: 1.49647 (Simulation time: 0 hr 4 min 39 sec) 
Heartbeat CPU 0 instructions: 90000002 cycles: 44314854 heartbeat IPC: 1.50223 cumulative IPC: 1.49791 (Simulation time: 0 hr 5 min 16 sec) 
Heartbeat CPU 0 instructions: 100000001 cycles: 50979614 heartbeat IPC: 1.50043 cumulative IPC: 1.49841 (Simulation time: 0 hr 5 min 52 sec) 
Finished CPU 0 instructions: 50000002 cycles: 33368668 cumulative IPC: 1.49841 (Simulation time: 0 hr 5 min 52 sec) 

ChampSim completed all CPUs

Region of Interest Statistics

CPU 0 cumulative IPC: 1.49841 instructions: 50000002 cycles: 33368668
L1D TOTAL     ACCESS:   19811079  HIT:   17982926  MISS:    1828153
L1D LOAD      ACCESS:    6764385  HIT:    5968544  MISS:     795841
L1D RFO       ACCESS:    6561707  HIT:    6268125  MISS:     293582
L1D PREFETCH  ACCESS:    6484987  HIT:    5746257  MISS:     738730
L1D WRITEBACK ACCESS:          0  HIT:          0  MISS:          0
L1D PREFETCH  REQUESTED:    6812975  ISSUED:    6674108  USEFUL:     168614  USELESS:     570115
L1D AVERAGE MISS LATENCY: 18.496 cycles
L1I TOTAL     ACCESS:   17093437  HIT:   13717616  MISS:    3375821
L1I LOAD      ACCESS:    9691408  HIT:    9638951  MISS:      52457
L1I RFO       ACCESS:          0  HIT:          0  MISS:          0
L1I PREFETCH  ACCESS:    7402029  HIT:    4078665  MISS:    3323364
L1I WRITEBACK ACCESS:          0  HIT:          0  MISS:          0
L1I PREFETCH  REQUESTED:    7708452  ISSUED:    7698321  USEFUL:    3138699  USELESS:     184665
L1I AVERAGE MISS LATENCY: 17.2524 cycles
L2C TOTAL     ACCESS:    7680118  HIT:    7196030  MISS:     484088
L2C LOAD      ACCESS:     820132  HIT:     730318  MISS:      89814
L2C RFO       ACCESS:     292321  HIT:     252517  MISS:      39804
L2C PREFETCH  ACCESS:    5931290  HIT:    5578751  MISS:     352539
L2C WRITEBACK ACCESS:     636375  HIT:     634444  MISS:       1931
L2C PREFETCH  REQUESTED:    6084985  ISSUED:    6051027  USEFUL:       3036  USELESS:     349456
L2C AVERAGE MISS LATENCY: 32.6559 cycles
LLC TOTAL     ACCESS:    2599366  HIT:    2592812  MISS:       6554
LLC LOAD      ACCESS:      89733  HIT:      89230  MISS:        503
LLC RFO       ACCESS:      39800  HIT:      39800  MISS:          0
LLC PREFETCH  ACCESS:    2392216  HIT:    2386198  MISS:       6018
LLC WRITEBACK ACCESS:      77617  HIT:      77584  MISS:         33
LLC PREFETCH  REQUESTED:          0  ISSUED:          0  USEFUL:        399  USELESS:       2465
LLC AVERAGE MISS LATENCY: 148.972 cycles
Major fault: 0 Minor fault: 1183
CPU 0 L1D next line prefetcher final stats

DRAM Statistics
 CHANNEL 0
 RQ ROW_BUFFER_HIT:       1769  ROW_BUFFER_MISS:       4752
 DBUS_CONGESTED:        889
 WQ ROW_BUFFER_HIT:          3  ROW_BUFFER_MISS:         31  FULL:          0

 AVG_CONGESTED_CYCLE: 4

CPU 0 Branch Prediction Accuracy: 99.8762% MPKI: 0.2296 Average ROB Occupancy at Mispredict: 184.899

Branch types
NOT_BRANCH: 40726165 81.4523%
BRANCH_DIRECT_JUMP: 508374 1.01675%
BRANCH_INDIRECT: 180051 0.360102%
BRANCH_CONDITIONAL: 5999665 11.9993%
BRANCH_DIRECT_CALL: 1086739 2.17348%
BRANCH_INDIRECT_CALL: 206109 0.412218%
BRANCH_RETURN: 1292837 2.58567%
BRANCH_OTHER: 0 0%

