Initialize SIGNATURE TABLE
ST_SET: 1
ST_WAY: 256
ST_TAG_BIT: 16
ST_TAG_MASK: ffff

Initialize PATTERN TABLE
PT_SET: 512
PT_WAY: 4
SIG_DELTA_BIT: 7
C_SIG_BIT: 4
C_DELTA_BIT: 4

Initialize PREFETCH FILTER
FILTER_SET: 1024

*** ChampSim Multicore Out-of-Order Simulator ***

Warmup Instructions: 50000000
Simulation Instructions: 50000000
Number of CPUs: 1
LLC sets: 2048
LLC ways: 16
Off-chip DRAM Size: 4096 MB Channels: 1 Width: 64-bit Data Rate: 3200 MT/s

CPU 0 runs /home/tapatil/CSE240C/SA1/ChampSim-master/ipc1_public/server_018.champsimtrace.xz
L1I D-JOLT instruction prefetcher has been constructed!
CPU 0 L1D next line prefetcher
Heartbeat CPU 0 instructions: 10000003 cycles: 3616930 heartbeat IPC: 2.76478 cumulative IPC: 2.76478 (Simulation time: 0 hr 0 min 34 sec) 
Heartbeat CPU 0 instructions: 20000001 cycles: 7238584 heartbeat IPC: 2.76117 cumulative IPC: 2.76297 (Simulation time: 0 hr 1 min 10 sec) 
Heartbeat CPU 0 instructions: 30000003 cycles: 10714162 heartbeat IPC: 2.87722 cumulative IPC: 2.80003 (Simulation time: 0 hr 1 min 43 sec) 
Heartbeat CPU 0 instructions: 40000000 cycles: 14226828 heartbeat IPC: 2.84684 cumulative IPC: 2.81159 (Simulation time: 0 hr 2 min 17 sec) 
Heartbeat CPU 0 instructions: 50000003 cycles: 17844575 heartbeat IPC: 2.76415 cumulative IPC: 2.80197 (Simulation time: 0 hr 2 min 52 sec) 

Warmup complete CPU 0 instructions: 50000003 cycles: 17844575 (Simulation time: 0 hr 2 min 52 sec) 

Heartbeat CPU 0 instructions: 60000000 cycles: 35270519 heartbeat IPC: 0.573857 cumulative IPC: 0.573857 (Simulation time: 0 hr 3 min 41 sec) 
Heartbeat CPU 0 instructions: 70000001 cycles: 52747034 heartbeat IPC: 0.572197 cumulative IPC: 0.573025 (Simulation time: 0 hr 4 min 29 sec) 
Heartbeat CPU 0 instructions: 80000000 cycles: 70076929 heartbeat IPC: 0.577038 cumulative IPC: 0.574357 (Simulation time: 0 hr 5 min 18 sec) 
Heartbeat CPU 0 instructions: 90000002 cycles: 87502269 heartbeat IPC: 0.573877 cumulative IPC: 0.574237 (Simulation time: 0 hr 6 min 7 sec) 
Heartbeat CPU 0 instructions: 100000001 cycles: 104911221 heartbeat IPC: 0.574417 cumulative IPC: 0.574273 (Simulation time: 0 hr 6 min 56 sec) 
Finished CPU 0 instructions: 50000002 cycles: 87066648 cumulative IPC: 0.574273 (Simulation time: 0 hr 6 min 56 sec) 

ChampSim completed all CPUs

Region of Interest Statistics

CPU 0 cumulative IPC: 0.574273 instructions: 50000002 cycles: 87066648
L1D TOTAL     ACCESS:   18612348  HIT:   16394537  MISS:    2217811
L1D LOAD      ACCESS:    7042905  HIT:    6320423  MISS:     722482
L1D RFO       ACCESS:    5800839  HIT:    4848472  MISS:     952367
L1D PREFETCH  ACCESS:    5768604  HIT:    5225642  MISS:     542962
L1D WRITEBACK ACCESS:          0  HIT:          0  MISS:          0
L1D PREFETCH  REQUESTED:    7084278  ISSUED:    6880784  USEFUL:     203137  USELESS:     339914
L1D AVERAGE MISS LATENCY: 177.831 cycles
L1I TOTAL     ACCESS:   18536053  HIT:   15026794  MISS:    3509259
L1I LOAD      ACCESS:   10140127  HIT:   10091673  MISS:      48454
L1I RFO       ACCESS:          0  HIT:          0  MISS:          0
L1I PREFETCH  ACCESS:    8395926  HIT:    4935121  MISS:    3460805
L1I WRITEBACK ACCESS:          0  HIT:          0  MISS:          0
L1I PREFETCH  REQUESTED:    9040676  ISSUED:    8946047  USEFUL:    2733694  USELESS:     727002
L1I AVERAGE MISS LATENCY: 17.8154 cycles
L2C TOTAL     ACCESS:    8451066  HIT:    6588530  MISS:    1862536
L2C LOAD      ACCESS:     542608  HIT:     277893  MISS:     264715
L2C RFO       ACCESS:     951755  HIT:      19311  MISS:     932444
L2C PREFETCH  ACCESS:    5786647  HIT:    5124717  MISS:     661930
L2C WRITEBACK ACCESS:    1170056  HIT:    1166609  MISS:       3447
L2C PREFETCH  REQUESTED:    5222778  ISSUED:    5219193  USEFUL:      21385  USELESS:     641665
L2C AVERAGE MISS LATENCY: 216.539 cycles
LLC TOTAL     ACCESS:    4305968  HIT:    2844800  MISS:    1461168
LLC LOAD      ACCESS:     264667  HIT:     165997  MISS:      98670
LLC RFO       ACCESS:     932442  HIT:     135525  MISS:     796917
LLC PREFETCH  ACCESS:    2005906  HIT:    1442559  MISS:     563347
LLC WRITEBACK ACCESS:    1102953  HIT:    1100719  MISS:       2234
LLC PREFETCH  REQUESTED:          0  ISSUED:          0  USEFUL:      31637  USELESS:     531638
LLC AVERAGE MISS LATENCY: 286.202 cycles
Major fault: 0 Minor fault: 22446
CPU 0 L1D next line prefetcher final stats

DRAM Statistics
 CHANNEL 0
 RQ ROW_BUFFER_HIT:     408829  ROW_BUFFER_MISS:    1049824
 DBUS_CONGESTED:    1463056
 WQ ROW_BUFFER_HIT:     253015  ROW_BUFFER_MISS:     645766  FULL:          0

 AVG_CONGESTED_CYCLE: 6

CPU 0 Branch Prediction Accuracy: 99.7114% MPKI: 0.47678 Average ROB Occupancy at Mispredict: 213.178

Branch types
NOT_BRANCH: 41740997 83.482%
BRANCH_DIRECT_JUMP: 458652 0.917304%
BRANCH_INDIRECT: 48282 0.096564%
BRANCH_CONDITIONAL: 5930880 11.8618%
BRANCH_DIRECT_CALL: 744230 1.48846%
BRANCH_INDIRECT_CALL: 166336 0.332672%
BRANCH_RETURN: 910589 1.82118%
BRANCH_OTHER: 0 0%

