Initialize SIGNATURE TABLE
ST_SET: 1
ST_WAY: 256
ST_TAG_BIT: 16
ST_TAG_MASK: ffff

Initialize PATTERN TABLE
PT_SET: 512
PT_WAY: 4
SIG_DELTA_BIT: 7
C_SIG_BIT: 4
C_DELTA_BIT: 4

Initialize PREFETCH FILTER
FILTER_SET: 1024

*** ChampSim Multicore Out-of-Order Simulator ***

Warmup Instructions: 50000000
Simulation Instructions: 50000000
Number of CPUs: 1
LLC sets: 2048
LLC ways: 16
Off-chip DRAM Size: 4096 MB Channels: 1 Width: 64-bit Data Rate: 3200 MT/s

CPU 0 runs /home/tapatil/CSE240C/SA1/ChampSim-master/ipc1_public/server_002.champsimtrace.xz
CPU 0 EPI prefetcher
CPU 0 L1D next line prefetcher
Heartbeat CPU 0 instructions: 10000000 cycles: 3581225 heartbeat IPC: 2.79234 cumulative IPC: 2.79234 (Simulation time: 0 hr 0 min 38 sec) 
Heartbeat CPU 0 instructions: 20000002 cycles: 7170032 heartbeat IPC: 2.78644 cumulative IPC: 2.78939 (Simulation time: 0 hr 1 min 20 sec) 
Heartbeat CPU 0 instructions: 30000000 cycles: 10710761 heartbeat IPC: 2.82428 cumulative IPC: 2.80092 (Simulation time: 0 hr 2 min 2 sec) 
Heartbeat CPU 0 instructions: 40000000 cycles: 14261006 heartbeat IPC: 2.81671 cumulative IPC: 2.80485 (Simulation time: 0 hr 2 min 44 sec) 
Heartbeat CPU 0 instructions: 50000001 cycles: 17808777 heartbeat IPC: 2.81867 cumulative IPC: 2.8076 (Simulation time: 0 hr 3 min 27 sec) 

Warmup complete CPU 0 instructions: 50000001 cycles: 17808777 (Simulation time: 0 hr 3 min 27 sec) 

Heartbeat CPU 0 instructions: 60000000 cycles: 24249338 heartbeat IPC: 1.55266 cumulative IPC: 1.55266 (Simulation time: 0 hr 4 min 12 sec) 
Heartbeat CPU 0 instructions: 70000003 cycles: 30682951 heartbeat IPC: 1.55434 cumulative IPC: 1.5535 (Simulation time: 0 hr 4 min 57 sec) 
Heartbeat CPU 0 instructions: 80000003 cycles: 37119375 heartbeat IPC: 1.55366 cumulative IPC: 1.55355 (Simulation time: 0 hr 5 min 42 sec) 
Heartbeat CPU 0 instructions: 90000002 cycles: 43553540 heartbeat IPC: 1.5542 cumulative IPC: 1.55371 (Simulation time: 0 hr 6 min 27 sec) 
Heartbeat CPU 0 instructions: 100000003 cycles: 49987170 heartbeat IPC: 1.55433 cumulative IPC: 1.55384 (Simulation time: 0 hr 7 min 13 sec) 
Finished CPU 0 instructions: 50000002 cycles: 32178393 cumulative IPC: 1.55384 (Simulation time: 0 hr 7 min 13 sec) 

ChampSim completed all CPUs

Region of Interest Statistics

CPU 0 cumulative IPC: 1.55384 instructions: 50000002 cycles: 32178393
L1D TOTAL     ACCESS:   21524743  HIT:   21523934  MISS:        809
L1D LOAD      ACCESS:    6602069  HIT:    6601693  MISS:        376
L1D RFO       ACCESS:    8433011  HIT:    8432898  MISS:        113
L1D PREFETCH  ACCESS:    6489663  HIT:    6489343  MISS:        320
L1D WRITEBACK ACCESS:          0  HIT:          0  MISS:          0
L1D PREFETCH  REQUESTED:    6602127  ISSUED:    6497051  USEFUL:         91  USELESS:        231
L1D AVERAGE MISS LATENCY: 39.5921 cycles
L1I TOTAL     ACCESS:   43933909  HIT:   42743081  MISS:    1190828
L1I LOAD      ACCESS:    9849389  HIT:    9838505  MISS:      10884
L1I RFO       ACCESS:          0  HIT:          0  MISS:          0
L1I PREFETCH  ACCESS:   34084520  HIT:   32904576  MISS:    1179944
L1I WRITEBACK ACCESS:          0  HIT:          0  MISS:          0
L1I PREFETCH  REQUESTED:   42669325  ISSUED:   42669325  USEFUL:     986584  USELESS:     193398
L1I AVERAGE MISS LATENCY: 14.1014 cycles
L2C TOTAL     ACCESS:    1428156  HIT:    1427834  MISS:        322
L2C LOAD      ACCESS:       8355  HIT:       8283  MISS:         72
L2C RFO       ACCESS:        113  HIT:        110  MISS:          3
L2C PREFETCH  ACCESS:    1419352  HIT:    1419107  MISS:        245
L2C WRITEBACK ACCESS:        336  HIT:        334  MISS:          2
L2C PREFETCH  REQUESTED:     534768  ISSUED:     534750  USEFUL:         67  USELESS:        126
L2C AVERAGE MISS LATENCY: 120.963 cycles
LLC TOTAL     ACCESS:     113735  HIT:     113083  MISS:        652
LLC LOAD      ACCESS:         72  HIT:         58  MISS:         14
LLC RFO       ACCESS:          3  HIT:          1  MISS:          2
LLC PREFETCH  ACCESS:     113550  HIT:     112918  MISS:        632
LLC WRITEBACK ACCESS:        110  HIT:        106  MISS:          4
LLC PREFETCH  REQUESTED:          0  ISSUED:          0  USEFUL:          7  USELESS:        170
LLC AVERAGE MISS LATENCY: 434.538 cycles
Major fault: 0 Minor fault: 1868
CPU 0 L1I EPI prefetcher final stats
CPU 0 L1D next line prefetcher final stats

DRAM Statistics
 CHANNEL 0
 RQ ROW_BUFFER_HIT:        148  ROW_BUFFER_MISS:        500
 DBUS_CONGESTED:        475
 WQ ROW_BUFFER_HIT:         64  ROW_BUFFER_MISS:        374  FULL:          0

 AVG_CONGESTED_CYCLE: 6

CPU 0 Branch Prediction Accuracy: 99.8789% MPKI: 0.20388 Average ROB Occupancy at Mispredict: 283.153

Branch types
NOT_BRANCH: 41580695 83.1614%
BRANCH_DIRECT_JUMP: 461630 0.92326%
BRANCH_INDIRECT: 0 0%
BRANCH_CONDITIONAL: 5376437 10.7529%
BRANCH_DIRECT_CALL: 1175775 2.35155%
BRANCH_INDIRECT_CALL: 114840 0.22968%
BRANCH_RETURN: 1290625 2.58125%
BRANCH_OTHER: 0 0%

