Initialize SIGNATURE TABLE
ST_SET: 1
ST_WAY: 256
ST_TAG_BIT: 16
ST_TAG_MASK: ffff

Initialize PATTERN TABLE
PT_SET: 512
PT_WAY: 4
SIG_DELTA_BIT: 7
C_SIG_BIT: 4
C_DELTA_BIT: 4

Initialize PREFETCH FILTER
FILTER_SET: 1024

*** ChampSim Multicore Out-of-Order Simulator ***

Warmup Instructions: 50000000
Simulation Instructions: 50000000
Number of CPUs: 1
LLC sets: 2048
LLC ways: 16
Off-chip DRAM Size: 4096 MB Channels: 1 Width: 64-bit Data Rate: 3200 MT/s

CPU 0 runs /home/tapatil/CSE240C/SA1/ChampSim-master/ipc1_public/server_018.champsimtrace.xz
L1I D-JOLT instruction prefetcher has been constructed!
CPU 0 L1D next line prefetcher
Heartbeat CPU 0 instructions: 10000003 cycles: 3616356 heartbeat IPC: 2.76522 cumulative IPC: 2.76522 (Simulation time: 0 hr 0 min 35 sec) 
Heartbeat CPU 0 instructions: 20000001 cycles: 7237574 heartbeat IPC: 2.7615 cumulative IPC: 2.76336 (Simulation time: 0 hr 1 min 9 sec) 
Heartbeat CPU 0 instructions: 30000003 cycles: 10712796 heartbeat IPC: 2.87751 cumulative IPC: 2.80039 (Simulation time: 0 hr 1 min 42 sec) 
Heartbeat CPU 0 instructions: 40000000 cycles: 14224833 heartbeat IPC: 2.84735 cumulative IPC: 2.81198 (Simulation time: 0 hr 2 min 16 sec) 
Heartbeat CPU 0 instructions: 50000003 cycles: 17842203 heartbeat IPC: 2.76444 cumulative IPC: 2.80234 (Simulation time: 0 hr 2 min 51 sec) 

Warmup complete CPU 0 instructions: 50000003 cycles: 17842203 (Simulation time: 0 hr 2 min 51 sec) 

Heartbeat CPU 0 instructions: 60000000 cycles: 35652031 heartbeat IPC: 0.561488 cumulative IPC: 0.561488 (Simulation time: 0 hr 3 min 40 sec) 
Heartbeat CPU 0 instructions: 70000001 cycles: 53213794 heartbeat IPC: 0.569419 cumulative IPC: 0.565425 (Simulation time: 0 hr 4 min 28 sec) 
Heartbeat CPU 0 instructions: 80000000 cycles: 70673840 heartbeat IPC: 0.572736 cumulative IPC: 0.567842 (Simulation time: 0 hr 5 min 17 sec) 
Heartbeat CPU 0 instructions: 90000002 cycles: 88122466 heartbeat IPC: 0.573111 cumulative IPC: 0.56915 (Simulation time: 0 hr 6 min 6 sec) 
Heartbeat CPU 0 instructions: 100000001 cycles: 105566523 heartbeat IPC: 0.573261 cumulative IPC: 0.569967 (Simulation time: 0 hr 6 min 55 sec) 
Finished CPU 0 instructions: 50000002 cycles: 87724321 cumulative IPC: 0.569967 (Simulation time: 0 hr 6 min 55 sec) 

ChampSim completed all CPUs

Region of Interest Statistics

CPU 0 cumulative IPC: 0.569967 instructions: 50000002 cycles: 87724321
L1D TOTAL     ACCESS:   18619615  HIT:   16401918  MISS:    2217697
L1D LOAD      ACCESS:    7043718  HIT:    6316730  MISS:     726988
L1D RFO       ACCESS:    5809318  HIT:    4857053  MISS:     952265
L1D PREFETCH  ACCESS:    5766579  HIT:    5228135  MISS:     538444
L1D WRITEBACK ACCESS:          0  HIT:          0  MISS:          0
L1D PREFETCH  REQUESTED:    7084529  ISSUED:    6881710  USEFUL:     198720  USELESS:     339813
L1D AVERAGE MISS LATENCY: 177.828 cycles
L1I TOTAL     ACCESS:   18617392  HIT:   15100003  MISS:    3517389
L1I LOAD      ACCESS:   10143129  HIT:   10095590  MISS:      47539
L1I RFO       ACCESS:          0  HIT:          0  MISS:          0
L1I PREFETCH  ACCESS:    8474263  HIT:    5004413  MISS:    3469850
L1I WRITEBACK ACCESS:          0  HIT:          0  MISS:          0
L1I PREFETCH  REQUESTED:    9025641  ISSUED:    8984640  USEFUL:    2744622  USELESS:     725125
L1I AVERAGE MISS LATENCY: 17.6389 cycles
L2C TOTAL     ACCESS:    8436569  HIT:    6574352  MISS:    1862217
L2C LOAD      ACCESS:     543365  HIT:     278911  MISS:     264454
L2C RFO       ACCESS:     951727  HIT:      18894  MISS:     932833
L2C PREFETCH  ACCESS:    5771426  HIT:    5110163  MISS:     661263
L2C WRITEBACK ACCESS:    1170051  HIT:    1166384  MISS:       3667
L2C PREFETCH  REQUESTED:    5083800  ISSUED:    5077600  USEFUL:      21365  USELESS:     641141
L2C AVERAGE MISS LATENCY: 216.851 cycles
LLC TOTAL     ACCESS:    4273979  HIT:    2825474  MISS:    1448505
LLC LOAD      ACCESS:     264420  HIT:     165697  MISS:      98723
LLC RFO       ACCESS:     932832  HIT:     137415  MISS:     795417
LLC PREFETCH  ACCESS:    1973462  HIT:    1421380  MISS:     552082
LLC WRITEBACK ACCESS:    1103265  HIT:    1100982  MISS:       2283
LLC PREFETCH  REQUESTED:          0  ISSUED:          0  USEFUL:      30732  USELESS:     521781
LLC AVERAGE MISS LATENCY: 285.234 cycles
Major fault: 0 Minor fault: 22444
CPU 0 L1D next line prefetcher final stats

DRAM Statistics
 CHANNEL 0
 RQ ROW_BUFFER_HIT:     406581  ROW_BUFFER_MISS:    1039350
 DBUS_CONGESTED:    1452972
 WQ ROW_BUFFER_HIT:     257708  ROW_BUFFER_MISS:     639519  FULL:          0

 AVG_CONGESTED_CYCLE: 6

CPU 0 Branch Prediction Accuracy: 99.7114% MPKI: 0.47678 Average ROB Occupancy at Mispredict: 212.972

Branch types
NOT_BRANCH: 41741013 83.482%
BRANCH_DIRECT_JUMP: 458652 0.917304%
BRANCH_INDIRECT: 48282 0.096564%
BRANCH_CONDITIONAL: 5930881 11.8618%
BRANCH_DIRECT_CALL: 744230 1.48846%
BRANCH_INDIRECT_CALL: 166336 0.332672%
BRANCH_RETURN: 910589 1.82118%
BRANCH_OTHER: 0 0%

