Initialize SIGNATURE TABLE
ST_SET: 1
ST_WAY: 256
ST_TAG_BIT: 16
ST_TAG_MASK: ffff

Initialize PATTERN TABLE
PT_SET: 512
PT_WAY: 4
SIG_DELTA_BIT: 7
C_SIG_BIT: 4
C_DELTA_BIT: 4

Initialize PREFETCH FILTER
FILTER_SET: 1024

*** ChampSim Multicore Out-of-Order Simulator ***

Warmup Instructions: 50000000
Simulation Instructions: 50000000
Number of CPUs: 1
LLC sets: 2048
LLC ways: 16
Off-chip DRAM Size: 4096 MB Channels: 1 Width: 64-bit Data Rate: 3200 MT/s

CPU 0 runs /home/tapatil/CSE240C/SA1/ChampSim-master/ipc1_public/spec_perlbench_001.champsimtrace.xz
L1I D-JOLT instruction prefetcher has been constructed!
CPU 0 L1D next line prefetcher
Heartbeat CPU 0 instructions: 10000000 cycles: 3276062 heartbeat IPC: 3.05245 cumulative IPC: 3.05245 (Simulation time: 0 hr 0 min 33 sec) 
Heartbeat CPU 0 instructions: 20000000 cycles: 6541407 heartbeat IPC: 3.06246 cumulative IPC: 3.05745 (Simulation time: 0 hr 1 min 7 sec) 
Heartbeat CPU 0 instructions: 30000002 cycles: 9859351 heartbeat IPC: 3.01392 cumulative IPC: 3.0428 (Simulation time: 0 hr 1 min 42 sec) 
Heartbeat CPU 0 instructions: 40000002 cycles: 13115178 heartbeat IPC: 3.07142 cumulative IPC: 3.0499 (Simulation time: 0 hr 2 min 15 sec) 
Heartbeat CPU 0 instructions: 50000001 cycles: 16389391 heartbeat IPC: 3.05417 cumulative IPC: 3.05075 (Simulation time: 0 hr 2 min 46 sec) 

Warmup complete CPU 0 instructions: 50000001 cycles: 16389391 (Simulation time: 0 hr 2 min 46 sec) 

Heartbeat CPU 0 instructions: 60000001 cycles: 24722100 heartbeat IPC: 1.20009 cumulative IPC: 1.20009 (Simulation time: 0 hr 3 min 18 sec) 
Heartbeat CPU 0 instructions: 70000003 cycles: 32910254 heartbeat IPC: 1.22128 cumulative IPC: 1.21059 (Simulation time: 0 hr 3 min 51 sec) 
Heartbeat CPU 0 instructions: 80000000 cycles: 41379617 heartbeat IPC: 1.18073 cumulative IPC: 1.20047 (Simulation time: 0 hr 4 min 23 sec) 
Heartbeat CPU 0 instructions: 90000000 cycles: 47132762 heartbeat IPC: 1.73818 cumulative IPC: 1.30109 (Simulation time: 0 hr 4 min 48 sec) 
Heartbeat CPU 0 instructions: 100000002 cycles: 53038982 heartbeat IPC: 1.69313 cumulative IPC: 1.36427 (Simulation time: 0 hr 5 min 14 sec) 
Finished CPU 0 instructions: 50000001 cycles: 36649591 cumulative IPC: 1.36427 (Simulation time: 0 hr 5 min 14 sec) 

ChampSim completed all CPUs

Region of Interest Statistics

CPU 0 cumulative IPC: 1.36427 instructions: 50000001 cycles: 36649591
L1D TOTAL     ACCESS:   20683285  HIT:   20268196  MISS:     415089
L1D LOAD      ACCESS:    7171442  HIT:    6957714  MISS:     213728
L1D RFO       ACCESS:    6542207  HIT:    6523676  MISS:      18531
L1D PREFETCH  ACCESS:    6969636  HIT:    6786806  MISS:     182830
L1D WRITEBACK ACCESS:          0  HIT:          0  MISS:          0
L1D PREFETCH  REQUESTED:    7187324  ISSUED:    7070957  USEFUL:      55151  USELESS:     127674
L1D AVERAGE MISS LATENCY: 59.5638 cycles
L1I TOTAL     ACCESS:   15440174  HIT:   14153928  MISS:    1286246
L1I LOAD      ACCESS:    9177421  HIT:    9116710  MISS:      60711
L1I RFO       ACCESS:          0  HIT:          0  MISS:          0
L1I PREFETCH  ACCESS:    6262753  HIT:    5037218  MISS:    1225535
L1I WRITEBACK ACCESS:          0  HIT:          0  MISS:          0
L1I PREFETCH  REQUESTED:    6676778  ISSUED:    6438350  USEFUL:     553123  USELESS:     672433
L1I AVERAGE MISS LATENCY: 16.4667 cycles
L2C TOTAL     ACCESS:    2396232  HIT:    2224201  MISS:     172031
L2C LOAD      ACCESS:     265595  HIT:     182928  MISS:      82667
L2C RFO       ACCESS:      18276  HIT:      12594  MISS:       5682
L2C PREFETCH  ACCESS:    2033394  HIT:    1950175  MISS:      83219
L2C WRITEBACK ACCESS:      78967  HIT:      78504  MISS:        463
L2C PREFETCH  REQUESTED:    1272182  ISSUED:    1272097  USEFUL:       7276  USELESS:      76037
L2C AVERAGE MISS LATENCY: 118.602 cycles
LLC TOTAL     ACCESS:     428911  HIT:     285043  MISS:     143868
LLC LOAD      ACCESS:      82665  HIT:      31954  MISS:      50711
LLC RFO       ACCESS:       5682  HIT:       2547  MISS:       3135
LLC PREFETCH  ACCESS:     314226  HIT:     224661  MISS:      89565
LLC WRITEBACK ACCESS:      26338  HIT:      25881  MISS:        457
LLC PREFETCH  REQUESTED:          0  ISSUED:          0  USEFUL:      13315  USELESS:      76355
LLC AVERAGE MISS LATENCY: 159.799 cycles
Major fault: 0 Minor fault: 6365
CPU 0 L1D next line prefetcher final stats

DRAM Statistics
 CHANNEL 0
 RQ ROW_BUFFER_HIT:      32565  ROW_BUFFER_MISS:     110846
 DBUS_CONGESTED:      55753
 WQ ROW_BUFFER_HIT:       4351  ROW_BUFFER_MISS:      13060  FULL:          0

 AVG_CONGESTED_CYCLE: 4

CPU 0 Branch Prediction Accuracy: 98.7418% MPKI: 2.47758 Average ROB Occupancy at Mispredict: 79.2686

Branch types
NOT_BRANCH: 40154100 80.3082%
BRANCH_DIRECT_JUMP: 817094 1.63419%
BRANCH_INDIRECT: 303787 0.607574%
BRANCH_CONDITIONAL: 7492103 14.9842%
BRANCH_DIRECT_CALL: 471777 0.943554%
BRANCH_INDIRECT_CALL: 144546 0.289092%
BRANCH_RETURN: 616324 1.23265%
BRANCH_OTHER: 0 0%

