Initialize SIGNATURE TABLE
ST_SET: 1
ST_WAY: 256
ST_TAG_BIT: 16
ST_TAG_MASK: ffff

Initialize PATTERN TABLE
PT_SET: 512
PT_WAY: 4
SIG_DELTA_BIT: 7
C_SIG_BIT: 4
C_DELTA_BIT: 4

Initialize PREFETCH FILTER
FILTER_SET: 1024

*** ChampSim Multicore Out-of-Order Simulator ***

Warmup Instructions: 50000000
Simulation Instructions: 50000000
Number of CPUs: 1
LLC sets: 2048
LLC ways: 16
Off-chip DRAM Size: 4096 MB Channels: 1 Width: 64-bit Data Rate: 3200 MT/s

CPU 0 runs /home/tapatil/CSE240C/SA1/ChampSim-master/ipc1_public/spec_perlbench_001.champsimtrace.xz
L1I D-JOLT instruction prefetcher has been constructed!
CPU 0 L1D next line prefetcher
Heartbeat CPU 0 instructions: 10000000 cycles: 3276095 heartbeat IPC: 3.05241 cumulative IPC: 3.05241 (Simulation time: 0 hr 0 min 30 sec) 
Heartbeat CPU 0 instructions: 20000000 cycles: 6541719 heartbeat IPC: 3.0622 cumulative IPC: 3.0573 (Simulation time: 0 hr 1 min 1 sec) 
Heartbeat CPU 0 instructions: 30000002 cycles: 9860115 heartbeat IPC: 3.0135 cumulative IPC: 3.04256 (Simulation time: 0 hr 1 min 33 sec) 
Heartbeat CPU 0 instructions: 40000002 cycles: 13116606 heartbeat IPC: 3.07079 cumulative IPC: 3.04957 (Simulation time: 0 hr 2 min 3 sec) 
Heartbeat CPU 0 instructions: 50000001 cycles: 16391115 heartbeat IPC: 3.05389 cumulative IPC: 3.05043 (Simulation time: 0 hr 2 min 33 sec) 

Warmup complete CPU 0 instructions: 50000001 cycles: 16391115 (Simulation time: 0 hr 2 min 33 sec) 

Heartbeat CPU 0 instructions: 60000001 cycles: 24730077 heartbeat IPC: 1.19919 cumulative IPC: 1.19919 (Simulation time: 0 hr 3 min 4 sec) 
Heartbeat CPU 0 instructions: 70000000 cycles: 32926876 heartbeat IPC: 1.21999 cumulative IPC: 1.2095 (Simulation time: 0 hr 3 min 36 sec) 
Heartbeat CPU 0 instructions: 80000000 cycles: 41387446 heartbeat IPC: 1.18195 cumulative IPC: 1.20018 (Simulation time: 0 hr 4 min 7 sec) 
Heartbeat CPU 0 instructions: 90000000 cycles: 47151120 heartbeat IPC: 1.735 cumulative IPC: 1.30039 (Simulation time: 0 hr 4 min 31 sec) 
Heartbeat CPU 0 instructions: 100000002 cycles: 53064016 heartbeat IPC: 1.69122 cumulative IPC: 1.3634 (Simulation time: 0 hr 4 min 56 sec) 
Finished CPU 0 instructions: 50000001 cycles: 36672901 cumulative IPC: 1.3634 (Simulation time: 0 hr 4 min 56 sec) 

ChampSim completed all CPUs

Region of Interest Statistics

CPU 0 cumulative IPC: 1.3634 instructions: 50000001 cycles: 36672901
L1D TOTAL     ACCESS:   20687702  HIT:   20272616  MISS:     415086
L1D LOAD      ACCESS:    7173430  HIT:    6959638  MISS:     213792
L1D RFO       ACCESS:    6542489  HIT:    6523977  MISS:      18512
L1D PREFETCH  ACCESS:    6971783  HIT:    6789001  MISS:     182782
L1D WRITEBACK ACCESS:          0  HIT:          0  MISS:          0
L1D PREFETCH  REQUESTED:    7189241  ISSUED:    7072967  USEFUL:      55118  USELESS:     127659
L1D AVERAGE MISS LATENCY: 59.6062 cycles
L1I TOTAL     ACCESS:   15808328  HIT:   14492210  MISS:    1316118
L1I LOAD      ACCESS:    9178873  HIT:    9118956  MISS:      59917
L1I RFO       ACCESS:          0  HIT:          0  MISS:          0
L1I PREFETCH  ACCESS:    6629455  HIT:    5373254  MISS:    1256201
L1I WRITEBACK ACCESS:          0  HIT:          0  MISS:          0
L1I PREFETCH  REQUESTED:    7018961  ISSUED:    6765926  USEFUL:     550389  USELESS:     705854
L1I AVERAGE MISS LATENCY: 16.4206 cycles
L2C TOTAL     ACCESS:    2441056  HIT:    2268969  MISS:     172087
L2C LOAD      ACCESS:     264628  HIT:     181923  MISS:      82705
L2C RFO       ACCESS:      18267  HIT:      12606  MISS:       5661
L2C PREFETCH  ACCESS:    2079196  HIT:    1995948  MISS:      83248
L2C WRITEBACK ACCESS:      78965  HIT:      78492  MISS:        473
L2C PREFETCH  REQUESTED:    1296876  ISSUED:    1296811  USEFUL:       7230  USELESS:      76004
L2C AVERAGE MISS LATENCY: 118.661 cycles
LLC TOTAL     ACCESS:     428834  HIT:     285479  MISS:     143355
LLC LOAD      ACCESS:      82705  HIT:      32084  MISS:      50621
LLC RFO       ACCESS:       5661  HIT:       2534  MISS:       3127
LLC PREFETCH  ACCESS:     314077  HIT:     224921  MISS:      89156
LLC WRITEBACK ACCESS:      26391  HIT:      25940  MISS:        451
LLC PREFETCH  REQUESTED:          0  ISSUED:          0  USEFUL:      13441  USELESS:      75884
LLC AVERAGE MISS LATENCY: 160.025 cycles
Major fault: 0 Minor fault: 6365
CPU 0 L1D next line prefetcher final stats

DRAM Statistics
 CHANNEL 0
 RQ ROW_BUFFER_HIT:      31963  ROW_BUFFER_MISS:     110941
 DBUS_CONGESTED:      55302
 WQ ROW_BUFFER_HIT:       4340  ROW_BUFFER_MISS:      13072  FULL:          0

 AVG_CONGESTED_CYCLE: 4

CPU 0 Branch Prediction Accuracy: 98.7418% MPKI: 2.47758 Average ROB Occupancy at Mispredict: 79.1047

Branch types
NOT_BRANCH: 40154100 80.3082%
BRANCH_DIRECT_JUMP: 817094 1.63419%
BRANCH_INDIRECT: 303787 0.607574%
BRANCH_CONDITIONAL: 7492103 14.9842%
BRANCH_DIRECT_CALL: 471777 0.943554%
BRANCH_INDIRECT_CALL: 144546 0.289092%
BRANCH_RETURN: 616324 1.23265%
BRANCH_OTHER: 0 0%

