Initialize SIGNATURE TABLE
ST_SET: 1
ST_WAY: 256
ST_TAG_BIT: 16
ST_TAG_MASK: ffff

Initialize PATTERN TABLE
PT_SET: 512
PT_WAY: 4
SIG_DELTA_BIT: 7
C_SIG_BIT: 4
C_DELTA_BIT: 4

Initialize PREFETCH FILTER
FILTER_SET: 1024

*** ChampSim Multicore Out-of-Order Simulator ***

Warmup Instructions: 50000000
Simulation Instructions: 50000000
Number of CPUs: 1
LLC sets: 2048
LLC ways: 16
Off-chip DRAM Size: 4096 MB Channels: 1 Width: 64-bit Data Rate: 3200 MT/s

CPU 0 runs /home/tapatil/CSE240C/SA1/ChampSim-master/ipc1_public/spec_perlbench_001.champsimtrace.xz
CPU 0 EPI prefetcher
CPU 0 L1D next line prefetcher
Heartbeat CPU 0 instructions: 10000000 cycles: 3276577 heartbeat IPC: 3.05197 cumulative IPC: 3.05197 (Simulation time: 0 hr 0 min 36 sec) 
Heartbeat CPU 0 instructions: 20000000 cycles: 6542415 heartbeat IPC: 3.062 cumulative IPC: 3.05698 (Simulation time: 0 hr 1 min 18 sec) 
Heartbeat CPU 0 instructions: 30000002 cycles: 9860820 heartbeat IPC: 3.0135 cumulative IPC: 3.04234 (Simulation time: 0 hr 1 min 59 sec) 
Heartbeat CPU 0 instructions: 40000002 cycles: 13116798 heartbeat IPC: 3.07127 cumulative IPC: 3.04952 (Simulation time: 0 hr 2 min 38 sec) 
Heartbeat CPU 0 instructions: 50000001 cycles: 16390806 heartbeat IPC: 3.05436 cumulative IPC: 3.05049 (Simulation time: 0 hr 3 min 16 sec) 

Warmup complete CPU 0 instructions: 50000001 cycles: 16390806 (Simulation time: 0 hr 3 min 16 sec) 

Heartbeat CPU 0 instructions: 60000001 cycles: 24589441 heartbeat IPC: 1.21972 cumulative IPC: 1.21972 (Simulation time: 0 hr 3 min 56 sec) 
Heartbeat CPU 0 instructions: 70000003 cycles: 32636868 heartbeat IPC: 1.24263 cumulative IPC: 1.23107 (Simulation time: 0 hr 4 min 38 sec) 
Heartbeat CPU 0 instructions: 80000000 cycles: 41005471 heartbeat IPC: 1.19494 cumulative IPC: 1.21879 (Simulation time: 0 hr 5 min 19 sec) 
Heartbeat CPU 0 instructions: 90000000 cycles: 46728624 heartbeat IPC: 1.74729 cumulative IPC: 1.31849 (Simulation time: 0 hr 5 min 54 sec) 
Heartbeat CPU 0 instructions: 100000002 cycles: 52586383 heartbeat IPC: 1.70714 cumulative IPC: 1.38138 (Simulation time: 0 hr 6 min 29 sec) 
Finished CPU 0 instructions: 50000001 cycles: 36195577 cumulative IPC: 1.38138 (Simulation time: 0 hr 6 min 29 sec) 

ChampSim completed all CPUs

Region of Interest Statistics

CPU 0 cumulative IPC: 1.38138 instructions: 50000001 cycles: 36195577
L1D TOTAL     ACCESS:   20673599  HIT:   20258498  MISS:     415101
L1D LOAD      ACCESS:    7166861  HIT:    6953009  MISS:     213852
L1D RFO       ACCESS:    6541795  HIT:    6523289  MISS:      18506
L1D PREFETCH  ACCESS:    6964943  HIT:    6782200  MISS:     182743
L1D WRITEBACK ACCESS:          0  HIT:          0  MISS:          0
L1D PREFETCH  REQUESTED:    7182480  ISSUED:    7065963  USEFUL:      55057  USELESS:     127681
L1D AVERAGE MISS LATENCY: 58.2429 cycles
L1I TOTAL     ACCESS:   44829602  HIT:   43799379  MISS:    1030223
L1I LOAD      ACCESS:    9160315  HIT:    9117136  MISS:      43179
L1I RFO       ACCESS:          0  HIT:          0  MISS:          0
L1I PREFETCH  ACCESS:   35669287  HIT:   34682243  MISS:     987044
L1I WRITEBACK ACCESS:          0  HIT:          0  MISS:          0
L1I PREFETCH  REQUESTED:   49065886  ISSUED:   49065886  USEFUL:     484271  USELESS:     502838
L1I AVERAGE MISS LATENCY: 16.6152 cycles
L2C TOTAL     ACCESS:    2082795  HIT:    1908940  MISS:     173855
L2C LOAD      ACCESS:     237319  HIT:     158008  MISS:      79311
L2C RFO       ACCESS:      18264  HIT:      12589  MISS:       5675
L2C PREFETCH  ACCESS:    1748263  HIT:    1659845  MISS:      88418
L2C WRITEBACK ACCESS:      78949  HIT:      78498  MISS:        451
L2C PREFETCH  REQUESTED:    1544436  ISSUED:    1544341  USEFUL:       6615  USELESS:      81680
L2C AVERAGE MISS LATENCY: 116.503 cycles
LLC TOTAL     ACCESS:     436724  HIT:     292390  MISS:     144334
LLC LOAD      ACCESS:      79310  HIT:      31670  MISS:      47640
LLC RFO       ACCESS:       5675  HIT:       2621  MISS:       3054
LLC PREFETCH  ACCESS:     325390  HIT:     232216  MISS:      93174
LLC WRITEBACK ACCESS:      26349  HIT:      25883  MISS:        466
LLC PREFETCH  REQUESTED:          0  ISSUED:          0  USEFUL:      14577  USELESS:      78577
LLC AVERAGE MISS LATENCY: 160.671 cycles
Major fault: 0 Minor fault: 6368
CPU 0 L1I EPI prefetcher final stats
CPU 0 L1D next line prefetcher final stats

DRAM Statistics
 CHANNEL 0
 RQ ROW_BUFFER_HIT:      32638  ROW_BUFFER_MISS:     111230
 DBUS_CONGESTED:      60400
 WQ ROW_BUFFER_HIT:       4202  ROW_BUFFER_MISS:      13226  FULL:          0

 AVG_CONGESTED_CYCLE: 4

CPU 0 Branch Prediction Accuracy: 98.7418% MPKI: 2.47758 Average ROB Occupancy at Mispredict: 80.591

Branch types
NOT_BRANCH: 40154100 80.3082%
BRANCH_DIRECT_JUMP: 817094 1.63419%
BRANCH_INDIRECT: 303787 0.607574%
BRANCH_CONDITIONAL: 7492103 14.9842%
BRANCH_DIRECT_CALL: 471777 0.943554%
BRANCH_INDIRECT_CALL: 144546 0.289092%
BRANCH_RETURN: 616324 1.23265%
BRANCH_OTHER: 0 0%

