Initialize SIGNATURE TABLE
ST_SET: 1
ST_WAY: 256
ST_TAG_BIT: 16
ST_TAG_MASK: ffff

Initialize PATTERN TABLE
PT_SET: 512
PT_WAY: 4
SIG_DELTA_BIT: 7
C_SIG_BIT: 4
C_DELTA_BIT: 4

Initialize PREFETCH FILTER
FILTER_SET: 1024

*** ChampSim Multicore Out-of-Order Simulator ***

Warmup Instructions: 50000000
Simulation Instructions: 50000000
Number of CPUs: 1
LLC sets: 2048
LLC ways: 16
Off-chip DRAM Size: 4096 MB Channels: 1 Width: 64-bit Data Rate: 3200 MT/s

CPU 0 runs /home/tapatil/CSE240C/SA1/ChampSim-master/ipc1_public/spec_gcc_003.champsimtrace.xz
L1I D-JOLT instruction prefetcher has been constructed!
CPU 0 L1D next line prefetcher
Heartbeat CPU 0 instructions: 10000001 cycles: 3478643 heartbeat IPC: 2.87468 cumulative IPC: 2.87468 (Simulation time: 0 hr 0 min 27 sec) 
Heartbeat CPU 0 instructions: 20000000 cycles: 6949189 heartbeat IPC: 2.88139 cumulative IPC: 2.87803 (Simulation time: 0 hr 0 min 52 sec) 
Heartbeat CPU 0 instructions: 30000002 cycles: 10391182 heartbeat IPC: 2.90529 cumulative IPC: 2.88706 (Simulation time: 0 hr 1 min 17 sec) 
Heartbeat CPU 0 instructions: 40000000 cycles: 13863551 heartbeat IPC: 2.87988 cumulative IPC: 2.88526 (Simulation time: 0 hr 1 min 42 sec) 
Heartbeat CPU 0 instructions: 50000001 cycles: 17176245 heartbeat IPC: 3.01869 cumulative IPC: 2.911 (Simulation time: 0 hr 2 min 7 sec) 

Warmup complete CPU 0 instructions: 50000001 cycles: 17176245 (Simulation time: 0 hr 2 min 7 sec) 

Heartbeat CPU 0 instructions: 60000000 cycles: 57035763 heartbeat IPC: 0.250881 cumulative IPC: 0.250881 (Simulation time: 0 hr 3 min 18 sec) 
Heartbeat CPU 0 instructions: 70000000 cycles: 99914291 heartbeat IPC: 0.233217 cumulative IPC: 0.241727 (Simulation time: 0 hr 4 min 32 sec) 
Heartbeat CPU 0 instructions: 80000003 cycles: 143747211 heartbeat IPC: 0.228139 cumulative IPC: 0.237021 (Simulation time: 0 hr 5 min 48 sec) 
Heartbeat CPU 0 instructions: 90000002 cycles: 180755563 heartbeat IPC: 0.270209 cumulative IPC: 0.24453 (Simulation time: 0 hr 6 min 54 sec) 
Heartbeat CPU 0 instructions: 100000001 cycles: 227310995 heartbeat IPC: 0.214798 cumulative IPC: 0.237943 (Simulation time: 0 hr 8 min 12 sec) 
Finished CPU 0 instructions: 50000000 cycles: 210134750 cumulative IPC: 0.237943 (Simulation time: 0 hr 8 min 12 sec) 

ChampSim completed all CPUs

Region of Interest Statistics

CPU 0 cumulative IPC: 0.237943 instructions: 50000000 cycles: 210134750
L1D TOTAL     ACCESS:   16799305  HIT:   11075092  MISS:    5724213
L1D LOAD      ACCESS:    4543627  HIT:    4160544  MISS:     383083
L1D RFO       ACCESS:    8201838  HIT:    3150152  MISS:    5051686
L1D PREFETCH  ACCESS:    4053840  HIT:    3764396  MISS:     289444
L1D WRITEBACK ACCESS:          0  HIT:          0  MISS:          0
L1D PREFETCH  REQUESTED:    4561007  ISSUED:    4501392  USEFUL:     152167  USELESS:     137457
L1D AVERAGE MISS LATENCY: 502.111 cycles
L1I TOTAL     ACCESS:   15760110  HIT:   14413846  MISS:    1346264
L1I LOAD      ACCESS:   11286685  HIT:   11224736  MISS:      61949
L1I RFO       ACCESS:          0  HIT:          0  MISS:          0
L1I PREFETCH  ACCESS:    4473425  HIT:    3189110  MISS:    1284315
L1I WRITEBACK ACCESS:          0  HIT:          0  MISS:          0
L1I PREFETCH  REQUESTED:    5185327  ISSUED:    4960735  USEFUL:     801516  USELESS:     482791
L1I AVERAGE MISS LATENCY: 61.38 cycles
L2C TOTAL     ACCESS:   12624548  HIT:    6526802  MISS:    6097746
L2C LOAD      ACCESS:     231700  HIT:      62454  MISS:     169246
L2C RFO       ACCESS:    5049810  HIT:       6443  MISS:    5043367
L2C PREFETCH  ACCESS:    2185165  HIT:    1300685  MISS:     884480
L2C WRITEBACK ACCESS:    5157873  HIT:    5157220  MISS:        653
L2C PREFETCH  REQUESTED:    1975551  ISSUED:    1975526  USEFUL:      23777  USELESS:     857826
L2C AVERAGE MISS LATENCY: 471.682 cycles
LLC TOTAL     ACCESS:   11994889  HIT:    7231069  MISS:    4763820
LLC LOAD      ACCESS:     169216  HIT:     127138  MISS:      42078
LLC RFO       ACCESS:    5043366  HIT:     627296  MISS:    4416070
LLC PREFETCH  ACCESS:    1648547  HIT:    1342875  MISS:     305672
LLC WRITEBACK ACCESS:    5133760  HIT:    5133760  MISS:          0
LLC PREFETCH  REQUESTED:          0  ISSUED:          0  USEFUL:      11519  USELESS:     293886
LLC AVERAGE MISS LATENCY: 575.361 cycles
Major fault: 0 Minor fault: 2819
CPU 0 L1D next line prefetcher final stats

DRAM Statistics
 CHANNEL 0
 RQ ROW_BUFFER_HIT:    1446236  ROW_BUFFER_MISS:    3317310
 DBUS_CONGESTED:    8222359
 WQ ROW_BUFFER_HIT:    1179159  ROW_BUFFER_MISS:    3266729  FULL:          0

 AVG_CONGESTED_CYCLE: 6

CPU 0 Branch Prediction Accuracy: 99.665% MPKI: 0.78342 Average ROB Occupancy at Mispredict: 124.186

Branch types
NOT_BRANCH: 38305856 76.6117%
BRANCH_DIRECT_JUMP: 384281 0.768562%
BRANCH_INDIRECT: 71949 0.143898%
BRANCH_CONDITIONAL: 9879825 19.7597%
BRANCH_DIRECT_CALL: 650586 1.30117%
BRANCH_INDIRECT_CALL: 28456 0.056912%
BRANCH_RETURN: 679046 1.35809%
BRANCH_OTHER: 0 0%

