Initialize SIGNATURE TABLE
ST_SET: 1
ST_WAY: 256
ST_TAG_BIT: 16
ST_TAG_MASK: ffff

Initialize PATTERN TABLE
PT_SET: 512
PT_WAY: 4
SIG_DELTA_BIT: 7
C_SIG_BIT: 4
C_DELTA_BIT: 4

Initialize PREFETCH FILTER
FILTER_SET: 1024

*** ChampSim Multicore Out-of-Order Simulator ***

Warmup Instructions: 50000000
Simulation Instructions: 50000000
Number of CPUs: 1
LLC sets: 2048
LLC ways: 16
Off-chip DRAM Size: 4096 MB Channels: 1 Width: 64-bit Data Rate: 3200 MT/s

CPU 0 runs /home/tapatil/CSE240C/SA1/ChampSim-master/ipc1_public/spec_gobmk_001.champsimtrace.xz
L1I D-JOLT instruction prefetcher has been constructed!
CPU 0 L1D next line prefetcher
Heartbeat CPU 0 instructions: 10000003 cycles: 3507294 heartbeat IPC: 2.8512 cumulative IPC: 2.8512 (Simulation time: 0 hr 0 min 27 sec) 
Heartbeat CPU 0 instructions: 20000002 cycles: 6987525 heartbeat IPC: 2.87337 cumulative IPC: 2.86224 (Simulation time: 0 hr 0 min 55 sec) 
Heartbeat CPU 0 instructions: 30000002 cycles: 10506229 heartbeat IPC: 2.84196 cumulative IPC: 2.85545 (Simulation time: 0 hr 1 min 23 sec) 
Heartbeat CPU 0 instructions: 40000001 cycles: 14025295 heartbeat IPC: 2.84166 cumulative IPC: 2.85199 (Simulation time: 0 hr 1 min 51 sec) 
Heartbeat CPU 0 instructions: 50000001 cycles: 17565289 heartbeat IPC: 2.82486 cumulative IPC: 2.84652 (Simulation time: 0 hr 2 min 20 sec) 

Warmup complete CPU 0 instructions: 50000001 cycles: 17565289 (Simulation time: 0 hr 2 min 20 sec) 

Heartbeat CPU 0 instructions: 60000000 cycles: 26322883 heartbeat IPC: 1.14187 cumulative IPC: 1.14187 (Simulation time: 0 hr 2 min 43 sec) 
Heartbeat CPU 0 instructions: 70000002 cycles: 34718012 heartbeat IPC: 1.19117 cumulative IPC: 1.166 (Simulation time: 0 hr 3 min 7 sec) 
Heartbeat CPU 0 instructions: 80000003 cycles: 43549400 heartbeat IPC: 1.13232 cumulative IPC: 1.15455 (Simulation time: 0 hr 3 min 31 sec) 
Heartbeat CPU 0 instructions: 90000001 cycles: 52045243 heartbeat IPC: 1.17705 cumulative IPC: 1.16009 (Simulation time: 0 hr 3 min 54 sec) 
Heartbeat CPU 0 instructions: 100000003 cycles: 60854076 heartbeat IPC: 1.13522 cumulative IPC: 1.15503 (Simulation time: 0 hr 4 min 18 sec) 
Finished CPU 0 instructions: 50000002 cycles: 43288787 cumulative IPC: 1.15503 (Simulation time: 0 hr 4 min 18 sec) 

ChampSim completed all CPUs

Region of Interest Statistics

CPU 0 cumulative IPC: 1.15503 instructions: 50000002 cycles: 43288787
L1D TOTAL     ACCESS:   17979291  HIT:   17599789  MISS:     379502
L1D LOAD      ACCESS:    7208346  HIT:    7073195  MISS:     135151
L1D RFO       ACCESS:    3701549  HIT:    3597014  MISS:     104535
L1D PREFETCH  ACCESS:    7069396  HIT:    6929580  MISS:     139816
L1D WRITEBACK ACCESS:          0  HIT:          0  MISS:          0
L1D PREFETCH  REQUESTED:    7213700  ISSUED:    7130997  USEFUL:      45130  USELESS:      94692
L1D AVERAGE MISS LATENCY: 33.9716 cycles
L1I TOTAL     ACCESS:   14096847  HIT:   12511623  MISS:    1585224
L1I LOAD      ACCESS:    8969019  HIT:    8923335  MISS:      45684
L1I RFO       ACCESS:          0  HIT:          0  MISS:          0
L1I PREFETCH  ACCESS:    5127828  HIT:    3588288  MISS:    1539540
L1I WRITEBACK ACCESS:          0  HIT:          0  MISS:          0
L1I PREFETCH  REQUESTED:    5300575  ISSUED:    5173156  USEFUL:     792324  USELESS:     747171
L1I AVERAGE MISS LATENCY: 15.2134 cycles
L2C TOTAL     ACCESS:    2870573  HIT:    2743027  MISS:     127546
L2C LOAD      ACCESS:     154121  HIT:     118471  MISS:      35650
L2C RFO       ACCESS:     104200  HIT:      69809  MISS:      34391
L2C PREFETCH  ACCESS:    2472964  HIT:    2415560  MISS:      57404
L2C WRITEBACK ACCESS:     139288  HIT:     139187  MISS:        101
L2C PREFETCH  REQUESTED:    1328104  ISSUED:    1327918  USEFUL:       5353  USELESS:      52393
L2C AVERAGE MISS LATENCY: 64.6482 cycles
LLC TOTAL     ACCESS:     272711  HIT:     238274  MISS:      34437
LLC LOAD      ACCESS:      35648  HIT:      27477  MISS:       8171
LLC RFO       ACCESS:      34391  HIT:      27709  MISS:       6682
LLC PREFETCH  ACCESS:     157263  HIT:     137916  MISS:      19347
LLC WRITEBACK ACCESS:      45409  HIT:      45172  MISS:        237
LLC PREFETCH  REQUESTED:          0  ISSUED:          0  USEFUL:       1322  USELESS:      16970
LLC AVERAGE MISS LATENCY: 180.116 cycles
Major fault: 0 Minor fault: 4160
CPU 0 L1D next line prefetcher final stats

DRAM Statistics
 CHANNEL 0
 RQ ROW_BUFFER_HIT:       4540  ROW_BUFFER_MISS:      29659
 DBUS_CONGESTED:      18435
 WQ ROW_BUFFER_HIT:       1396  ROW_BUFFER_MISS:      14372  FULL:          0

 AVG_CONGESTED_CYCLE: 4

CPU 0 Branch Prediction Accuracy: 94.7729% MPKI: 9.72684 Average ROB Occupancy at Mispredict: 54.2195

Branch types
NOT_BRANCH: 40695385 81.3908%
BRANCH_DIRECT_JUMP: 422107 0.844214%
BRANCH_INDIRECT: 65 0.00013%
BRANCH_CONDITIONAL: 8105006 16.21%
BRANCH_DIRECT_CALL: 374913 0.749826%
BRANCH_INDIRECT_CALL: 13657 0.027314%
BRANCH_RETURN: 388556 0.777112%
BRANCH_OTHER: 0 0%

