Initialize SIGNATURE TABLE
ST_SET: 1
ST_WAY: 256
ST_TAG_BIT: 16
ST_TAG_MASK: ffff

Initialize PATTERN TABLE
PT_SET: 512
PT_WAY: 4
SIG_DELTA_BIT: 7
C_SIG_BIT: 4
C_DELTA_BIT: 4

Initialize PREFETCH FILTER
FILTER_SET: 1024

*** ChampSim Multicore Out-of-Order Simulator ***

Warmup Instructions: 50000000
Simulation Instructions: 50000000
Number of CPUs: 1
LLC sets: 2048
LLC ways: 16
Off-chip DRAM Size: 4096 MB Channels: 1 Width: 64-bit Data Rate: 3200 MT/s

CPU 0 runs /home/tapatil/CSE240C/SA1/ChampSim-master/ipc1_public/spec_x264_001.champsimtrace.xz
CPU 0 EPI prefetcher
CPU 0 L1D next line prefetcher
Heartbeat CPU 0 instructions: 10000002 cycles: 3060271 heartbeat IPC: 3.26769 cumulative IPC: 3.26769 (Simulation time: 0 hr 0 min 25 sec) 
Heartbeat CPU 0 instructions: 20000002 cycles: 6110813 heartbeat IPC: 3.27811 cumulative IPC: 3.27289 (Simulation time: 0 hr 0 min 51 sec) 
Heartbeat CPU 0 instructions: 30000002 cycles: 9146734 heartbeat IPC: 3.29389 cumulative IPC: 3.27986 (Simulation time: 0 hr 1 min 17 sec) 
Heartbeat CPU 0 instructions: 40000000 cycles: 12191731 heartbeat IPC: 3.28407 cumulative IPC: 3.28091 (Simulation time: 0 hr 1 min 42 sec) 
Heartbeat CPU 0 instructions: 50000000 cycles: 15235224 heartbeat IPC: 3.2857 cumulative IPC: 3.28187 (Simulation time: 0 hr 2 min 7 sec) 

Warmup complete CPU 0 instructions: 50000004 cycles: 15235225 (Simulation time: 0 hr 2 min 7 sec) 

Heartbeat CPU 0 instructions: 60000002 cycles: 21162125 heartbeat IPC: 1.68722 cumulative IPC: 1.68722 (Simulation time: 0 hr 2 min 26 sec) 
Heartbeat CPU 0 instructions: 70000000 cycles: 27071252 heartbeat IPC: 1.6923 cumulative IPC: 1.68976 (Simulation time: 0 hr 2 min 45 sec) 
Heartbeat CPU 0 instructions: 80000003 cycles: 33124256 heartbeat IPC: 1.65207 cumulative IPC: 1.67701 (Simulation time: 0 hr 3 min 3 sec) 
Heartbeat CPU 0 instructions: 90000002 cycles: 39156860 heartbeat IPC: 1.65766 cumulative IPC: 1.67213 (Simulation time: 0 hr 3 min 23 sec) 
Heartbeat CPU 0 instructions: 100000002 cycles: 45053273 heartbeat IPC: 1.69595 cumulative IPC: 1.67684 (Simulation time: 0 hr 3 min 42 sec) 
Finished CPU 0 instructions: 50000002 cycles: 29818049 cumulative IPC: 1.67684 (Simulation time: 0 hr 3 min 42 sec) 

ChampSim completed all CPUs

Region of Interest Statistics

CPU 0 cumulative IPC: 1.67684 instructions: 50000002 cycles: 29818049
L1D TOTAL     ACCESS:   12954000  HIT:   12792978  MISS:     161022
L1D LOAD      ACCESS:    5091784  HIT:    5036601  MISS:      55183
L1D RFO       ACCESS:    2879792  HIT:    2845542  MISS:      34250
L1D PREFETCH  ACCESS:    4982424  HIT:    4910835  MISS:      71589
L1D WRITEBACK ACCESS:          0  HIT:          0  MISS:          0
L1D PREFETCH  REQUESTED:    5108484  ISSUED:    5040906  USEFUL:      25740  USELESS:      45658
L1D AVERAGE MISS LATENCY: 40.5468 cycles
L1I TOTAL     ACCESS:   23965843  HIT:   23587699  MISS:     378144
L1I LOAD      ACCESS:    8033456  HIT:    8030088  MISS:       3368
L1I RFO       ACCESS:          0  HIT:          0  MISS:          0
L1I PREFETCH  ACCESS:   15932387  HIT:   15557611  MISS:     374776
L1I WRITEBACK ACCESS:          0  HIT:          0  MISS:          0
L1I PREFETCH  REQUESTED:   18624674  ISSUED:   18624674  USEFUL:     276297  USELESS:      98514
L1I AVERAGE MISS LATENCY: 15.1531 cycles
L2C TOTAL     ACCESS:     820477  HIT:     779934  MISS:      40543
L2C LOAD      ACCESS:      56810  HIT:      51327  MISS:       5483
L2C RFO       ACCESS:      34014  HIT:      21958  MISS:      12056
L2C PREFETCH  ACCESS:     686607  HIT:     663689  MISS:      22918
L2C WRITEBACK ACCESS:      43046  HIT:      42960  MISS:         86
L2C PREFETCH  REQUESTED:     722677  ISSUED:     721552  USEFUL:       9057  USELESS:      14180
L2C AVERAGE MISS LATENCY: 103.511 cycles
LLC TOTAL     ACCESS:     110152  HIT:      80822  MISS:      29330
LLC LOAD      ACCESS:       5482  HIT:       3337  MISS:       2145
LLC RFO       ACCESS:      12056  HIT:        445  MISS:      11611
LLC PREFETCH  ACCESS:      79147  HIT:      63634  MISS:      15513
LLC WRITEBACK ACCESS:      13467  HIT:      13406  MISS:         61
LLC PREFETCH  REQUESTED:          0  ISSUED:          0  USEFUL:       1800  USELESS:      14060
LLC AVERAGE MISS LATENCY: 167.565 cycles
Major fault: 0 Minor fault: 1288
CPU 0 L1I EPI prefetcher final stats
CPU 0 L1D next line prefetcher final stats

DRAM Statistics
 CHANNEL 0
 RQ ROW_BUFFER_HIT:       8793  ROW_BUFFER_MISS:      20476
 DBUS_CONGESTED:      12759
 WQ ROW_BUFFER_HIT:       2823  ROW_BUFFER_MISS:      10053  FULL:          0

 AVG_CONGESTED_CYCLE: 6

CPU 0 Branch Prediction Accuracy: 97.1633% MPKI: 1.73704 Average ROB Occupancy at Mispredict: 42.9965

Branch types
NOT_BRANCH: 46937921 93.8758%
BRANCH_DIRECT_JUMP: 170816 0.341632%
BRANCH_INDIRECT: 0 0%
BRANCH_CONDITIONAL: 2532774 5.06555%
BRANCH_DIRECT_CALL: 114227 0.228454%
BRANCH_INDIRECT_CALL: 64863 0.129726%
BRANCH_RETURN: 179089 0.358178%
BRANCH_OTHER: 0 0%

