Initialize SIGNATURE TABLE
ST_SET: 1
ST_WAY: 256
ST_TAG_BIT: 16
ST_TAG_MASK: ffff

Initialize PATTERN TABLE
PT_SET: 512
PT_WAY: 4
SIG_DELTA_BIT: 7
C_SIG_BIT: 4
C_DELTA_BIT: 4

Initialize PREFETCH FILTER
FILTER_SET: 1024

*** ChampSim Multicore Out-of-Order Simulator ***

Warmup Instructions: 50000000
Simulation Instructions: 50000000
Number of CPUs: 1
LLC sets: 2048
LLC ways: 16
Off-chip DRAM Size: 4096 MB Channels: 1 Width: 64-bit Data Rate: 3200 MT/s

CPU 0 runs /home/tapatil/CSE240C/SA1/ChampSim-master/ipc1_public/spec_gcc_003.champsimtrace.xz
L1I D-JOLT instruction prefetcher has been constructed!
CPU 0 L1D next line prefetcher
Heartbeat CPU 0 instructions: 10000001 cycles: 3483563 heartbeat IPC: 2.87062 cumulative IPC: 2.87062 (Simulation time: 0 hr 0 min 28 sec) 
Heartbeat CPU 0 instructions: 20000000 cycles: 6948380 heartbeat IPC: 2.88616 cumulative IPC: 2.87837 (Simulation time: 0 hr 0 min 54 sec) 
Heartbeat CPU 0 instructions: 30000002 cycles: 10396819 heartbeat IPC: 2.89986 cumulative IPC: 2.8855 (Simulation time: 0 hr 1 min 20 sec) 
Heartbeat CPU 0 instructions: 40000000 cycles: 13863731 heartbeat IPC: 2.88441 cumulative IPC: 2.88523 (Simulation time: 0 hr 1 min 45 sec) 
Heartbeat CPU 0 instructions: 50000001 cycles: 17175828 heartbeat IPC: 3.01924 cumulative IPC: 2.91107 (Simulation time: 0 hr 2 min 10 sec) 

Warmup complete CPU 0 instructions: 50000001 cycles: 17175828 (Simulation time: 0 hr 2 min 10 sec) 

Heartbeat CPU 0 instructions: 60000000 cycles: 56825373 heartbeat IPC: 0.25221 cumulative IPC: 0.25221 (Simulation time: 0 hr 3 min 21 sec) 
Heartbeat CPU 0 instructions: 70000000 cycles: 99458370 heartbeat IPC: 0.23456 cumulative IPC: 0.243065 (Simulation time: 0 hr 4 min 36 sec) 
Heartbeat CPU 0 instructions: 80000002 cycles: 143074342 heartbeat IPC: 0.229274 cumulative IPC: 0.238287 (Simulation time: 0 hr 5 min 52 sec) 
Heartbeat CPU 0 instructions: 90000002 cycles: 180025435 heartbeat IPC: 0.270628 cumulative IPC: 0.245625 (Simulation time: 0 hr 6 min 59 sec) 
Heartbeat CPU 0 instructions: 100000000 cycles: 226475827 heartbeat IPC: 0.215283 cumulative IPC: 0.238892 (Simulation time: 0 hr 8 min 17 sec) 
Finished CPU 0 instructions: 50000000 cycles: 209300000 cumulative IPC: 0.238892 (Simulation time: 0 hr 8 min 17 sec) 

ChampSim completed all CPUs

Region of Interest Statistics

CPU 0 cumulative IPC: 0.238892 instructions: 50000000 cycles: 209300000
L1D TOTAL     ACCESS:   16803843  HIT:   11079565  MISS:    5724278
L1D LOAD      ACCESS:    4545817  HIT:    4162820  MISS:     382997
L1D RFO       ACCESS:    8201639  HIT:    3149924  MISS:    5051715
L1D PREFETCH  ACCESS:    4056387  HIT:    3766821  MISS:     289566
L1D WRITEBACK ACCESS:          0  HIT:          0  MISS:          0
L1D PREFETCH  REQUESTED:    4563391  ISSUED:    4503807  USEFUL:     152258  USELESS:     137488
L1D AVERAGE MISS LATENCY: 499.283 cycles
L1I TOTAL     ACCESS:   15774865  HIT:   14447410  MISS:    1327455
L1I LOAD      ACCESS:   11283191  HIT:   11218854  MISS:      64337
L1I RFO       ACCESS:          0  HIT:          0  MISS:          0
L1I PREFETCH  ACCESS:    4491674  HIT:    3228556  MISS:    1263118
L1I WRITEBACK ACCESS:          0  HIT:          0  MISS:          0
L1I PREFETCH  REQUESTED:    5091713  ISSUED:    4868593  USEFUL:     794408  USELESS:     468699
L1I AVERAGE MISS LATENCY: 61.9666 cycles
L2C TOTAL     ACCESS:   12605216  HIT:    6510191  MISS:    6095025
L2C LOAD      ACCESS:     232460  HIT:      63082  MISS:     169378
L2C RFO       ACCESS:    5049837  HIT:       6432  MISS:    5043405
L2C PREFETCH  ACCESS:    2165052  HIT:    1283447  MISS:     881605
L2C WRITEBACK ACCESS:    5157867  HIT:    5157230  MISS:        637
L2C PREFETCH  REQUESTED:    1970039  ISSUED:    1970005  USEFUL:      24098  USELESS:     854615
L2C AVERAGE MISS LATENCY: 469.403 cycles
LLC TOTAL     ACCESS:   11987644  HIT:    7240792  MISS:    4746852
LLC LOAD      ACCESS:     169342  HIT:     127324  MISS:      42018
LLC RFO       ACCESS:    5043405  HIT:     647211  MISS:    4396194
LLC PREFETCH  ACCESS:    1641121  HIT:    1332481  MISS:     308640
LLC WRITEBACK ACCESS:    5133776  HIT:    5133776  MISS:          0
LLC PREFETCH  REQUESTED:          0  ISSUED:          0  USEFUL:      11312  USELESS:     297137
LLC AVERAGE MISS LATENCY: 574.124 cycles
Major fault: 0 Minor fault: 2819
CPU 0 L1D next line prefetcher final stats

DRAM Statistics
 CHANNEL 0
 RQ ROW_BUFFER_HIT:    1445227  ROW_BUFFER_MISS:    3301291
 DBUS_CONGESTED:    8184856
 WQ ROW_BUFFER_HIT:    1173614  ROW_BUFFER_MISS:    3252321  FULL:          0

 AVG_CONGESTED_CYCLE: 6

CPU 0 Branch Prediction Accuracy: 99.665% MPKI: 0.78342 Average ROB Occupancy at Mispredict: 123.831

Branch types
NOT_BRANCH: 38305856 76.6117%
BRANCH_DIRECT_JUMP: 384281 0.768562%
BRANCH_INDIRECT: 71949 0.143898%
BRANCH_CONDITIONAL: 9879825 19.7597%
BRANCH_DIRECT_CALL: 650586 1.30117%
BRANCH_INDIRECT_CALL: 28456 0.056912%
BRANCH_RETURN: 679046 1.35809%
BRANCH_OTHER: 0 0%

