Initialize SIGNATURE TABLE
ST_SET: 1
ST_WAY: 256
ST_TAG_BIT: 16
ST_TAG_MASK: ffff

Initialize PATTERN TABLE
PT_SET: 512
PT_WAY: 4
SIG_DELTA_BIT: 7
C_SIG_BIT: 4
C_DELTA_BIT: 4

Initialize PREFETCH FILTER
FILTER_SET: 1024

*** ChampSim Multicore Out-of-Order Simulator ***

Warmup Instructions: 50000000
Simulation Instructions: 50000000
Number of CPUs: 1
LLC sets: 2048
LLC ways: 16
Off-chip DRAM Size: 4096 MB Channels: 1 Width: 64-bit Data Rate: 3200 MT/s

CPU 0 runs /home/tapatil/CSE240C/SA1/ChampSim-master/ipc1_public/spec_x264_001.champsimtrace.xz
L1I D-JOLT instruction prefetcher has been constructed!
CPU 0 L1D next line prefetcher
Heartbeat CPU 0 instructions: 10000002 cycles: 3059605 heartbeat IPC: 3.2684 cumulative IPC: 3.2684 (Simulation time: 0 hr 0 min 22 sec) 
Heartbeat CPU 0 instructions: 20000002 cycles: 6109391 heartbeat IPC: 3.27892 cumulative IPC: 3.27365 (Simulation time: 0 hr 0 min 44 sec) 
Heartbeat CPU 0 instructions: 30000002 cycles: 9144739 heartbeat IPC: 3.29452 cumulative IPC: 3.28058 (Simulation time: 0 hr 1 min 6 sec) 
Heartbeat CPU 0 instructions: 40000000 cycles: 12188889 heartbeat IPC: 3.28499 cumulative IPC: 3.28168 (Simulation time: 0 hr 1 min 28 sec) 
Heartbeat CPU 0 instructions: 50000000 cycles: 15231717 heartbeat IPC: 3.28642 cumulative IPC: 3.28262 (Simulation time: 0 hr 1 min 51 sec) 

Warmup complete CPU 0 instructions: 50000004 cycles: 15231718 (Simulation time: 0 hr 1 min 51 sec) 

Heartbeat CPU 0 instructions: 60000002 cycles: 21162646 heartbeat IPC: 1.68608 cumulative IPC: 1.68608 (Simulation time: 0 hr 2 min 6 sec) 
Heartbeat CPU 0 instructions: 70000000 cycles: 27073926 heartbeat IPC: 1.69168 cumulative IPC: 1.68887 (Simulation time: 0 hr 2 min 20 sec) 
Heartbeat CPU 0 instructions: 80000003 cycles: 33132811 heartbeat IPC: 1.65047 cumulative IPC: 1.67588 (Simulation time: 0 hr 2 min 36 sec) 
Heartbeat CPU 0 instructions: 90000001 cycles: 39168881 heartbeat IPC: 1.65671 cumulative IPC: 1.67104 (Simulation time: 0 hr 2 min 51 sec) 
Heartbeat CPU 0 instructions: 100000002 cycles: 45066176 heartbeat IPC: 1.69569 cumulative IPC: 1.67591 (Simulation time: 0 hr 3 min 5 sec) 
Finished CPU 0 instructions: 50000002 cycles: 29834459 cumulative IPC: 1.67591 (Simulation time: 0 hr 3 min 5 sec) 

ChampSim completed all CPUs

Region of Interest Statistics

CPU 0 cumulative IPC: 1.67591 instructions: 50000002 cycles: 29834459
L1D TOTAL     ACCESS:   12965795  HIT:   12804838  MISS:     160957
L1D LOAD      ACCESS:    5095216  HIT:    5040145  MISS:      55071
L1D RFO       ACCESS:    2880965  HIT:    2846653  MISS:      34312
L1D PREFETCH  ACCESS:    4989614  HIT:    4918040  MISS:      71574
L1D WRITEBACK ACCESS:          0  HIT:          0  MISS:          0
L1D PREFETCH  REQUESTED:    5111871  ISSUED:    5044194  USEFUL:      25762  USELESS:      45622
L1D AVERAGE MISS LATENCY: 40.7328 cycles
L1I TOTAL     ACCESS:    9521413  HIT:    9114296  MISS:     407117
L1I LOAD      ACCESS:    8036686  HIT:    8029650  MISS:       7036
L1I RFO       ACCESS:          0  HIT:          0  MISS:          0
L1I PREFETCH  ACCESS:    1484727  HIT:    1084646  MISS:     400081
L1I WRITEBACK ACCESS:          0  HIT:          0  MISS:          0
L1I PREFETCH  REQUESTED:    1602484  ISSUED:    1594051  USEFUL:     303892  USELESS:      96219
L1I AVERAGE MISS LATENCY: 14.9938 cycles
L2C TOTAL     ACCESS:     860016  HIT:     821431  MISS:      38585
L2C LOAD      ACCESS:      59924  HIT:      54630  MISS:       5294
L2C RFO       ACCESS:      34110  HIT:      22048  MISS:      12062
L2C PREFETCH  ACCESS:     722884  HIT:     701732  MISS:      21152
L2C WRITEBACK ACCESS:      43098  HIT:      43021  MISS:         77
L2C PREFETCH  REQUESTED:     644072  ISSUED:     637771  USEFUL:       8925  USELESS:      12461
L2C AVERAGE MISS LATENCY: 107.578 cycles
LLC TOTAL     ACCESS:     122639  HIT:      93535  MISS:      29104
LLC LOAD      ACCESS:       5294  HIT:       3156  MISS:       2138
LLC RFO       ACCESS:      12062  HIT:        449  MISS:      11613
LLC PREFETCH  ACCESS:      91664  HIT:      76374  MISS:      15290
LLC WRITEBACK ACCESS:      13619  HIT:      13556  MISS:         63
LLC PREFETCH  REQUESTED:          0  ISSUED:          0  USEFUL:       1709  USELESS:      13981
LLC AVERAGE MISS LATENCY: 166.541 cycles
Major fault: 0 Minor fault: 1285
CPU 0 L1D next line prefetcher final stats

DRAM Statistics
 CHANNEL 0
 RQ ROW_BUFFER_HIT:       8679  ROW_BUFFER_MISS:      20362
 DBUS_CONGESTED:      12198
 WQ ROW_BUFFER_HIT:       2882  ROW_BUFFER_MISS:       9868  FULL:          0

 AVG_CONGESTED_CYCLE: 6

CPU 0 Branch Prediction Accuracy: 97.1633% MPKI: 1.73704 Average ROB Occupancy at Mispredict: 43.0708

Branch types
NOT_BRANCH: 46937921 93.8758%
BRANCH_DIRECT_JUMP: 170816 0.341632%
BRANCH_INDIRECT: 0 0%
BRANCH_CONDITIONAL: 2532774 5.06555%
BRANCH_DIRECT_CALL: 114227 0.228454%
BRANCH_INDIRECT_CALL: 64863 0.129726%
BRANCH_RETURN: 179089 0.358178%
BRANCH_OTHER: 0 0%

