Initialize SIGNATURE TABLE
ST_SET: 1
ST_WAY: 256
ST_TAG_BIT: 16
ST_TAG_MASK: ffff

Initialize PATTERN TABLE
PT_SET: 512
PT_WAY: 4
SIG_DELTA_BIT: 7
C_SIG_BIT: 4
C_DELTA_BIT: 4

Initialize PREFETCH FILTER
FILTER_SET: 1024

*** ChampSim Multicore Out-of-Order Simulator ***

Warmup Instructions: 50000000
Simulation Instructions: 50000000
Number of CPUs: 1
LLC sets: 2048
LLC ways: 16
Off-chip DRAM Size: 4096 MB Channels: 1 Width: 64-bit Data Rate: 3200 MT/s

CPU 0 runs /home/tapatil/CSE240C/SA1/ChampSim-master/ipc1_public/spec_gcc_001.champsimtrace.xz
L1I D-JOLT instruction prefetcher has been constructed!
CPU 0 L1D next line prefetcher
Heartbeat CPU 0 instructions: 10000003 cycles: 3219069 heartbeat IPC: 3.10649 cumulative IPC: 3.10649 (Simulation time: 0 hr 0 min 31 sec) 
Heartbeat CPU 0 instructions: 20000002 cycles: 6463755 heartbeat IPC: 3.08196 cumulative IPC: 3.09418 (Simulation time: 0 hr 1 min 3 sec) 
Heartbeat CPU 0 instructions: 30000000 cycles: 9664670 heartbeat IPC: 3.12411 cumulative IPC: 3.10409 (Simulation time: 0 hr 1 min 34 sec) 
Heartbeat CPU 0 instructions: 40000001 cycles: 12906414 heartbeat IPC: 3.08476 cumulative IPC: 3.09923 (Simulation time: 0 hr 2 min 6 sec) 
Heartbeat CPU 0 instructions: 50000001 cycles: 16146638 heartbeat IPC: 3.08621 cumulative IPC: 3.09662 (Simulation time: 0 hr 2 min 38 sec) 

Warmup complete CPU 0 instructions: 50000001 cycles: 16146638 (Simulation time: 0 hr 2 min 38 sec) 

Heartbeat CPU 0 instructions: 60000000 cycles: 23994649 heartbeat IPC: 1.27421 cumulative IPC: 1.27421 (Simulation time: 0 hr 3 min 8 sec) 
Heartbeat CPU 0 instructions: 70000002 cycles: 31915751 heartbeat IPC: 1.26245 cumulative IPC: 1.2683 (Simulation time: 0 hr 3 min 39 sec) 
Heartbeat CPU 0 instructions: 80000000 cycles: 39452868 heartbeat IPC: 1.32677 cumulative IPC: 1.28721 (Simulation time: 0 hr 4 min 8 sec) 
Heartbeat CPU 0 instructions: 90000001 cycles: 47340377 heartbeat IPC: 1.26783 cumulative IPC: 1.28231 (Simulation time: 0 hr 4 min 39 sec) 
Heartbeat CPU 0 instructions: 100000000 cycles: 55523040 heartbeat IPC: 1.2221 cumulative IPC: 1.2698 (Simulation time: 0 hr 5 min 10 sec) 
Finished CPU 0 instructions: 50000000 cycles: 39376406 cumulative IPC: 1.2698 (Simulation time: 0 hr 5 min 10 sec) 

ChampSim completed all CPUs

Region of Interest Statistics

CPU 0 cumulative IPC: 1.2698 instructions: 50000000 cycles: 39376406
L1D TOTAL     ACCESS:   19319128  HIT:   18213964  MISS:    1105164
L1D LOAD      ACCESS:    7230381  HIT:    6751054  MISS:     479327
L1D RFO       ACCESS:    5116780  HIT:    5037085  MISS:      79695
L1D PREFETCH  ACCESS:    6971967  HIT:    6425825  MISS:     546142
L1D WRITEBACK ACCESS:          0  HIT:          0  MISS:          0
L1D PREFETCH  REQUESTED:    7274021  ISSUED:    7176214  USEFUL:     275902  USELESS:     270253
L1D AVERAGE MISS LATENCY: 25.4629 cycles
L1I TOTAL     ACCESS:   13918487  HIT:   13223163  MISS:     695324
L1I LOAD      ACCESS:    9293749  HIT:    9239052  MISS:      54697
L1I RFO       ACCESS:          0  HIT:          0  MISS:          0
L1I PREFETCH  ACCESS:    4624738  HIT:    3984111  MISS:     640627
L1I WRITEBACK ACCESS:          0  HIT:          0  MISS:          0
L1I PREFETCH  REQUESTED:    4774618  ISSUED:    4765753  USEFUL:     370305  USELESS:     270364
L1I AVERAGE MISS LATENCY: 18.6606 cycles
L2C TOTAL     ACCESS:    3001452  HIT:    2754108  MISS:     247344
L2C LOAD      ACCESS:     502854  HIT:     414526  MISS:      88328
L2C RFO       ACCESS:      75004  HIT:      36774  MISS:      38230
L2C PREFETCH  ACCESS:    2169838  HIT:    2049466  MISS:     120372
L2C WRITEBACK ACCESS:     253756  HIT:     253342  MISS:        414
L2C PREFETCH  REQUESTED:    1858487  ISSUED:    1858393  USEFUL:      32139  USELESS:      87978
L2C AVERAGE MISS LATENCY: 62.99 cycles
LLC TOTAL     ACCESS:     658806  HIT:     584497  MISS:      74309
LLC LOAD      ACCESS:      88121  HIT:      76438  MISS:      11683
LLC RFO       ACCESS:      38230  HIT:      17346  MISS:      20884
LLC PREFETCH  ACCESS:     441063  HIT:     400490  MISS:      40573
LLC WRITEBACK ACCESS:      91392  HIT:      90223  MISS:       1169
LLC PREFETCH  REQUESTED:          0  ISSUED:          0  USEFUL:      13674  USELESS:      29158
LLC AVERAGE MISS LATENCY: 181.529 cycles
Major fault: 0 Minor fault: 6868
CPU 0 L1D next line prefetcher final stats

DRAM Statistics
 CHANNEL 0
 RQ ROW_BUFFER_HIT:      19731  ROW_BUFFER_MISS:      53407
 DBUS_CONGESTED:      35935
 WQ ROW_BUFFER_HIT:       4370  ROW_BUFFER_MISS:      23338  FULL:          0

 AVG_CONGESTED_CYCLE: 6

CPU 0 Branch Prediction Accuracy: 95.8872% MPKI: 9.67286 Average ROB Occupancy at Mispredict: 67.067

Branch types
NOT_BRANCH: 38240102 76.4802%
BRANCH_DIRECT_JUMP: 653296 1.30659%
BRANCH_INDIRECT: 37098 0.074196%
BRANCH_CONDITIONAL: 8897819 17.7956%
BRANCH_DIRECT_CALL: 992620 1.98524%
BRANCH_INDIRECT_CALL: 93046 0.186092%
BRANCH_RETURN: 1085674 2.17135%
BRANCH_OTHER: 0 0%

