Initialize SIGNATURE TABLE
ST_SET: 1
ST_WAY: 256
ST_TAG_BIT: 16
ST_TAG_MASK: ffff

Initialize PATTERN TABLE
PT_SET: 512
PT_WAY: 4
SIG_DELTA_BIT: 7
C_SIG_BIT: 4
C_DELTA_BIT: 4

Initialize PREFETCH FILTER
FILTER_SET: 1024

*** ChampSim Multicore Out-of-Order Simulator ***

Warmup Instructions: 50000000
Simulation Instructions: 50000000
Number of CPUs: 1
LLC sets: 2048
LLC ways: 16
Off-chip DRAM Size: 4096 MB Channels: 1 Width: 64-bit Data Rate: 3200 MT/s

CPU 0 runs /home/tapatil/CSE240C/SA1/ChampSim-master/ipc1_public/spec_x264_001.champsimtrace.xz
CPU 0 EPI prefetcher
CPU 0 L1D next line prefetcher
Heartbeat CPU 0 instructions: 10000002 cycles: 3059721 heartbeat IPC: 3.26827 cumulative IPC: 3.26827 (Simulation time: 0 hr 0 min 22 sec) 
Heartbeat CPU 0 instructions: 20000002 cycles: 6109954 heartbeat IPC: 3.27844 cumulative IPC: 3.27335 (Simulation time: 0 hr 0 min 44 sec) 
Heartbeat CPU 0 instructions: 30000002 cycles: 9145765 heartbeat IPC: 3.29401 cumulative IPC: 3.28021 (Simulation time: 0 hr 1 min 7 sec) 
Heartbeat CPU 0 instructions: 40000000 cycles: 12190616 heartbeat IPC: 3.28423 cumulative IPC: 3.28121 (Simulation time: 0 hr 1 min 29 sec) 
Heartbeat CPU 0 instructions: 50000000 cycles: 15233676 heartbeat IPC: 3.28617 cumulative IPC: 3.2822 (Simulation time: 0 hr 1 min 52 sec) 

Warmup complete CPU 0 instructions: 50000004 cycles: 15233677 (Simulation time: 0 hr 1 min 52 sec) 

Heartbeat CPU 0 instructions: 60000002 cycles: 21161372 heartbeat IPC: 1.687 cumulative IPC: 1.687 (Simulation time: 0 hr 2 min 8 sec) 
Heartbeat CPU 0 instructions: 70000000 cycles: 27069480 heartbeat IPC: 1.69259 cumulative IPC: 1.68979 (Simulation time: 0 hr 2 min 24 sec) 
Heartbeat CPU 0 instructions: 80000003 cycles: 33124168 heartbeat IPC: 1.65161 cumulative IPC: 1.67687 (Simulation time: 0 hr 2 min 40 sec) 
Heartbeat CPU 0 instructions: 90000002 cycles: 39160552 heartbeat IPC: 1.65662 cumulative IPC: 1.67176 (Simulation time: 0 hr 2 min 55 sec) 
Heartbeat CPU 0 instructions: 100000002 cycles: 45056017 heartbeat IPC: 1.69622 cumulative IPC: 1.6766 (Simulation time: 0 hr 3 min 11 sec) 
Finished CPU 0 instructions: 50000002 cycles: 29822341 cumulative IPC: 1.6766 (Simulation time: 0 hr 3 min 11 sec) 

ChampSim completed all CPUs

Region of Interest Statistics

CPU 0 cumulative IPC: 1.6766 instructions: 50000002 cycles: 29822341
L1D TOTAL     ACCESS:   12954971  HIT:   12793934  MISS:     161037
L1D LOAD      ACCESS:    5089954  HIT:    5034838  MISS:      55116
L1D RFO       ACCESS:    2880425  HIT:    2846107  MISS:      34318
L1D PREFETCH  ACCESS:    4984592  HIT:    4912989  MISS:      71603
L1D WRITEBACK ACCESS:          0  HIT:          0  MISS:          0
L1D PREFETCH  REQUESTED:    5106518  ISSUED:    5039176  USEFUL:      25743  USELESS:      45669
L1D AVERAGE MISS LATENCY: 40.2052 cycles
L1I TOTAL     ACCESS:   21510798  HIT:   21188166  MISS:     322632
L1I LOAD      ACCESS:    8034070  HIT:    8028494  MISS:       5576
L1I RFO       ACCESS:          0  HIT:          0  MISS:          0
L1I PREFETCH  ACCESS:   13476728  HIT:   13159672  MISS:     317056
L1I WRITEBACK ACCESS:          0  HIT:          0  MISS:          0
L1I PREFETCH  REQUESTED:   17425195  ISSUED:   17425195  USEFUL:     267264  USELESS:      49812
L1I AVERAGE MISS LATENCY: 15.0491 cycles
L2C TOTAL     ACCESS:     724883  HIT:     685443  MISS:      39440
L2C LOAD      ACCESS:      58250  HIT:      52915  MISS:       5335
L2C RFO       ACCESS:      34097  HIT:      22045  MISS:      12052
L2C PREFETCH  ACCESS:     589433  HIT:     567468  MISS:      21965
L2C WRITEBACK ACCESS:      43103  HIT:      43015  MISS:         88
L2C PREFETCH  REQUESTED:     611991  ISSUED:     611263  USEFUL:       8983  USELESS:      13246
L2C AVERAGE MISS LATENCY: 104.299 cycles
LLC TOTAL     ACCESS:     112118  HIT:      82809  MISS:      29309
LLC LOAD      ACCESS:       5335  HIT:       3201  MISS:       2134
LLC RFO       ACCESS:      12052  HIT:        441  MISS:      11611
LLC PREFETCH  ACCESS:      81132  HIT:      65631  MISS:      15501
LLC WRITEBACK ACCESS:      13599  HIT:      13536  MISS:         63
LLC PREFETCH  REQUESTED:          0  ISSUED:          0  USEFUL:       1763  USELESS:      13948
LLC AVERAGE MISS LATENCY: 166.983 cycles
Major fault: 0 Minor fault: 1287
CPU 0 L1I EPI prefetcher final stats
CPU 0 L1D next line prefetcher final stats

DRAM Statistics
 CHANNEL 0
 RQ ROW_BUFFER_HIT:       8827  ROW_BUFFER_MISS:      20418
 DBUS_CONGESTED:      12584
 WQ ROW_BUFFER_HIT:       3042  ROW_BUFFER_MISS:       9837  FULL:          0

 AVG_CONGESTED_CYCLE: 6

CPU 0 Branch Prediction Accuracy: 97.1633% MPKI: 1.73704 Average ROB Occupancy at Mispredict: 43.0079

Branch types
NOT_BRANCH: 46937921 93.8758%
BRANCH_DIRECT_JUMP: 170816 0.341632%
BRANCH_INDIRECT: 0 0%
BRANCH_CONDITIONAL: 2532774 5.06555%
BRANCH_DIRECT_CALL: 114227 0.228454%
BRANCH_INDIRECT_CALL: 64863 0.129726%
BRANCH_RETURN: 179089 0.358178%
BRANCH_OTHER: 0 0%

