Initialize SIGNATURE TABLE
ST_SET: 1
ST_WAY: 256
ST_TAG_BIT: 16
ST_TAG_MASK: ffff

Initialize PATTERN TABLE
PT_SET: 512
PT_WAY: 4
SIG_DELTA_BIT: 7
C_SIG_BIT: 4
C_DELTA_BIT: 4

Initialize PREFETCH FILTER
FILTER_SET: 1024

*** ChampSim Multicore Out-of-Order Simulator ***

Warmup Instructions: 50000000
Simulation Instructions: 50000000
Number of CPUs: 1
LLC sets: 2048
LLC ways: 16
Off-chip DRAM Size: 4096 MB Channels: 1 Width: 64-bit Data Rate: 3200 MT/s

CPU 0 runs /home/tapatil/CSE240C/SA1/ChampSim-master/ipc1_public/spec_gcc_003.champsimtrace.xz
CPU 0 EPI prefetcher
CPU 0 L1D next line prefetcher
Heartbeat CPU 0 instructions: 10000001 cycles: 3488471 heartbeat IPC: 2.86659 cumulative IPC: 2.86659 (Simulation time: 0 hr 0 min 32 sec) 
Heartbeat CPU 0 instructions: 20000000 cycles: 6959614 heartbeat IPC: 2.8809 cumulative IPC: 2.87372 (Simulation time: 0 hr 1 min 2 sec) 
Heartbeat CPU 0 instructions: 30000002 cycles: 10410029 heartbeat IPC: 2.8982 cumulative IPC: 2.88184 (Simulation time: 0 hr 1 min 32 sec) 
Heartbeat CPU 0 instructions: 40000000 cycles: 13882555 heartbeat IPC: 2.87975 cumulative IPC: 2.88131 (Simulation time: 0 hr 2 min 2 sec) 
Heartbeat CPU 0 instructions: 50000001 cycles: 17195139 heartbeat IPC: 3.01879 cumulative IPC: 2.9078 (Simulation time: 0 hr 2 min 33 sec) 

Warmup complete CPU 0 instructions: 50000001 cycles: 17195139 (Simulation time: 0 hr 2 min 33 sec) 

Heartbeat CPU 0 instructions: 60000000 cycles: 57774996 heartbeat IPC: 0.246428 cumulative IPC: 0.246428 (Simulation time: 0 hr 3 min 51 sec) 
Heartbeat CPU 0 instructions: 70000000 cycles: 101426298 heartbeat IPC: 0.229088 cumulative IPC: 0.237442 (Simulation time: 0 hr 5 min 12 sec) 
Heartbeat CPU 0 instructions: 80000003 cycles: 145744230 heartbeat IPC: 0.225642 cumulative IPC: 0.233374 (Simulation time: 0 hr 6 min 34 sec) 
Heartbeat CPU 0 instructions: 90000002 cycles: 182862605 heartbeat IPC: 0.269408 cumulative IPC: 0.241448 (Simulation time: 0 hr 7 min 48 sec) 
Heartbeat CPU 0 instructions: 100000001 cycles: 229931476 heartbeat IPC: 0.212455 cumulative IPC: 0.235033 (Simulation time: 0 hr 9 min 13 sec) 
Finished CPU 0 instructions: 50000000 cycles: 212736337 cumulative IPC: 0.235033 (Simulation time: 0 hr 9 min 13 sec) 

ChampSim completed all CPUs

Region of Interest Statistics

CPU 0 cumulative IPC: 0.235033 instructions: 50000000 cycles: 212736337
L1D TOTAL     ACCESS:   16792287  HIT:   11068050  MISS:    5724237
L1D LOAD      ACCESS:    4540534  HIT:    4157432  MISS:     383102
L1D RFO       ACCESS:    8200400  HIT:    3148819  MISS:    5051581
L1D PREFETCH  ACCESS:    4051353  HIT:    3761799  MISS:     289554
L1D WRITEBACK ACCESS:          0  HIT:          0  MISS:          0
L1D PREFETCH  REQUESTED:    4558030  ISSUED:    4497687  USEFUL:     152226  USELESS:     137508
L1D AVERAGE MISS LATENCY: 512.974 cycles
L1I TOTAL     ACCESS:   31504597  HIT:   29945540  MISS:    1559057
L1I LOAD      ACCESS:   11304235  HIT:   11242245  MISS:      61990
L1I RFO       ACCESS:          0  HIT:          0  MISS:          0
L1I PREFETCH  ACCESS:   20200362  HIT:   18703295  MISS:    1497067
L1I WRITEBACK ACCESS:          0  HIT:          0  MISS:          0
L1I PREFETCH  REQUESTED:   30205178  ISSUED:   30205178  USEFUL:     825570  USELESS:     671406
L1I AVERAGE MISS LATENCY: 57.4562 cycles
L2C TOTAL     ACCESS:   12891221  HIT:    6785141  MISS:    6106080
L2C LOAD      ACCESS:     246021  HIT:      72433  MISS:     173588
L2C RFO       ACCESS:    5049762  HIT:       6448  MISS:    5043314
L2C PREFETCH  ACCESS:    2437606  HIT:    1548996  MISS:     888610
L2C WRITEBACK ACCESS:    5157832  HIT:    5157264  MISS:        568
L2C PREFETCH  REQUESTED:    2593151  ISSUED:    2592594  USEFUL:      31050  USELESS:     854715
L2C AVERAGE MISS LATENCY: 480.476 cycles
LLC TOTAL     ACCESS:   12090427  HIT:    7284641  MISS:    4805786
LLC LOAD      ACCESS:     173550  HIT:     130509  MISS:      43041
LLC RFO       ACCESS:    5043315  HIT:     553256  MISS:    4490059
LLC PREFETCH  ACCESS:    1739696  HIT:    1467010  MISS:     272686
LLC WRITEBACK ACCESS:    5133866  HIT:    5133866  MISS:          0
LLC PREFETCH  REQUESTED:          0  ISSUED:          0  USEFUL:      13090  USELESS:     259568
LLC AVERAGE MISS LATENCY: 580.737 cycles
Major fault: 0 Minor fault: 2822
CPU 0 L1I EPI prefetcher final stats
CPU 0 L1D next line prefetcher final stats

DRAM Statistics
 CHANNEL 0
 RQ ROW_BUFFER_HIT:    1445132  ROW_BUFFER_MISS:    3360622
 DBUS_CONGESTED:    8356957
 WQ ROW_BUFFER_HIT:    1204068  ROW_BUFFER_MISS:    3314798  FULL:          0

 AVG_CONGESTED_CYCLE: 6

CPU 0 Branch Prediction Accuracy: 99.665% MPKI: 0.78342 Average ROB Occupancy at Mispredict: 127.358

Branch types
NOT_BRANCH: 38305856 76.6117%
BRANCH_DIRECT_JUMP: 384281 0.768562%
BRANCH_INDIRECT: 71949 0.143898%
BRANCH_CONDITIONAL: 9879825 19.7597%
BRANCH_DIRECT_CALL: 650586 1.30117%
BRANCH_INDIRECT_CALL: 28456 0.056912%
BRANCH_RETURN: 679046 1.35809%
BRANCH_OTHER: 0 0%

