Initialize SIGNATURE TABLE
ST_SET: 1
ST_WAY: 256
ST_TAG_BIT: 16
ST_TAG_MASK: ffff

Initialize PATTERN TABLE
PT_SET: 512
PT_WAY: 4
SIG_DELTA_BIT: 7
C_SIG_BIT: 4
C_DELTA_BIT: 4

Initialize PREFETCH FILTER
FILTER_SET: 1024

*** ChampSim Multicore Out-of-Order Simulator ***

Warmup Instructions: 50000000
Simulation Instructions: 50000000
Number of CPUs: 1
LLC sets: 2048
LLC ways: 16
Off-chip DRAM Size: 4096 MB Channels: 1 Width: 64-bit Data Rate: 3200 MT/s

CPU 0 runs /home/tapatil/CSE240C/SA1/ChampSim-master/ipc1_public/spec_gobmk_001.champsimtrace.xz
CPU 0 EPI prefetcher
CPU 0 L1D next line prefetcher
Heartbeat CPU 0 instructions: 10000003 cycles: 3507978 heartbeat IPC: 2.85065 cumulative IPC: 2.85065 (Simulation time: 0 hr 0 min 35 sec) 
Heartbeat CPU 0 instructions: 20000002 cycles: 6988977 heartbeat IPC: 2.87274 cumulative IPC: 2.86165 (Simulation time: 0 hr 1 min 12 sec) 
Heartbeat CPU 0 instructions: 30000002 cycles: 10508861 heartbeat IPC: 2.841 cumulative IPC: 2.85473 (Simulation time: 0 hr 1 min 49 sec) 
Heartbeat CPU 0 instructions: 40000001 cycles: 14028948 heartbeat IPC: 2.84084 cumulative IPC: 2.85125 (Simulation time: 0 hr 2 min 25 sec) 
Heartbeat CPU 0 instructions: 50000001 cycles: 17569824 heartbeat IPC: 2.82416 cumulative IPC: 2.84579 (Simulation time: 0 hr 3 min 1 sec) 

Warmup complete CPU 0 instructions: 50000001 cycles: 17569824 (Simulation time: 0 hr 3 min 1 sec) 

Heartbeat CPU 0 instructions: 60000000 cycles: 26354720 heartbeat IPC: 1.13832 cumulative IPC: 1.13832 (Simulation time: 0 hr 3 min 36 sec) 
Heartbeat CPU 0 instructions: 70000002 cycles: 34786270 heartbeat IPC: 1.18602 cumulative IPC: 1.16168 (Simulation time: 0 hr 4 min 12 sec) 
Heartbeat CPU 0 instructions: 80000003 cycles: 43643267 heartbeat IPC: 1.12905 cumulative IPC: 1.1506 (Simulation time: 0 hr 4 min 46 sec) 
Heartbeat CPU 0 instructions: 90000001 cycles: 52175697 heartbeat IPC: 1.172 cumulative IPC: 1.15587 (Simulation time: 0 hr 5 min 19 sec) 
Heartbeat CPU 0 instructions: 100000003 cycles: 61028317 heartbeat IPC: 1.12961 cumulative IPC: 1.15052 (Simulation time: 0 hr 5 min 54 sec) 
Finished CPU 0 instructions: 50000002 cycles: 43458493 cumulative IPC: 1.15052 (Simulation time: 0 hr 5 min 54 sec) 

ChampSim completed all CPUs

Region of Interest Statistics

CPU 0 cumulative IPC: 1.15052 instructions: 50000002 cycles: 43458493
L1D TOTAL     ACCESS:   18001886  HIT:   17622324  MISS:     379562
L1D LOAD      ACCESS:    7219121  HIT:    7085070  MISS:     134051
L1D RFO       ACCESS:    3702059  HIT:    3597509  MISS:     104550
L1D PREFETCH  ACCESS:    7080706  HIT:    6939745  MISS:     140961
L1D WRITEBACK ACCESS:          0  HIT:          0  MISS:          0
L1D PREFETCH  REQUESTED:    7224712  ISSUED:    7141999  USEFUL:      46242  USELESS:      94723
L1D AVERAGE MISS LATENCY: 34.0133 cycles
L1I TOTAL     ACCESS:   51562761  HIT:   49449580  MISS:    2113181
L1I LOAD      ACCESS:    8973274  HIT:    8896922  MISS:      76352
L1I RFO       ACCESS:          0  HIT:          0  MISS:          0
L1I PREFETCH  ACCESS:   42589487  HIT:   40552658  MISS:    2036829
L1I WRITEBACK ACCESS:          0  HIT:          0  MISS:          0
L1I PREFETCH  REQUESTED:   58289648  ISSUED:   58289648  USEFUL:     787100  USELESS:    1249712
L1I AVERAGE MISS LATENCY: 15.1538 cycles
L2C TOTAL     ACCESS:    3946176  HIT:    3813567  MISS:     132609
L2C LOAD      ACCESS:     175868  HIT:     140442  MISS:      35426
L2C RFO       ACCESS:     104175  HIT:      69515  MISS:      34660
L2C PREFETCH  ACCESS:    3526828  HIT:    3464400  MISS:      62428
L2C WRITEBACK ACCESS:     139305  HIT:     139210  MISS:         95
L2C PREFETCH  REQUESTED:    3328584  ISSUED:    3327427  USEFUL:       4867  USELESS:      57901
L2C AVERAGE MISS LATENCY: 63.8729 cycles
LLC TOTAL     ACCESS:     298410  HIT:     258309  MISS:      40101
LLC LOAD      ACCESS:      35425  HIT:      27252  MISS:       8173
LLC RFO       ACCESS:      34658  HIT:      27536  MISS:       7122
LLC PREFETCH  ACCESS:     182715  HIT:     158183  MISS:      24532
LLC WRITEBACK ACCESS:      45612  HIT:      45338  MISS:        274
LLC PREFETCH  REQUESTED:          0  ISSUED:          0  USEFUL:       1384  USELESS:      21260
LLC AVERAGE MISS LATENCY: 177.987 cycles
Major fault: 0 Minor fault: 4158
CPU 0 L1I EPI prefetcher final stats
CPU 0 L1D next line prefetcher final stats

DRAM Statistics
 CHANNEL 0
 RQ ROW_BUFFER_HIT:       5053  ROW_BUFFER_MISS:      34772
 DBUS_CONGESTED:      24754
 WQ ROW_BUFFER_HIT:       1525  ROW_BUFFER_MISS:      15765  FULL:          0

 AVG_CONGESTED_CYCLE: 4

CPU 0 Branch Prediction Accuracy: 94.7729% MPKI: 9.72684 Average ROB Occupancy at Mispredict: 53.9747

Branch types
NOT_BRANCH: 40695383 81.3908%
BRANCH_DIRECT_JUMP: 422107 0.844214%
BRANCH_INDIRECT: 65 0.00013%
BRANCH_CONDITIONAL: 8105005 16.21%
BRANCH_DIRECT_CALL: 374913 0.749826%
BRANCH_INDIRECT_CALL: 13657 0.027314%
BRANCH_RETURN: 388556 0.777112%
BRANCH_OTHER: 0 0%

