Initialize SIGNATURE TABLE
ST_SET: 1
ST_WAY: 256
ST_TAG_BIT: 16
ST_TAG_MASK: ffff

Initialize PATTERN TABLE
PT_SET: 512
PT_WAY: 4
SIG_DELTA_BIT: 7
C_SIG_BIT: 4
C_DELTA_BIT: 4

Initialize PREFETCH FILTER
FILTER_SET: 1024

*** ChampSim Multicore Out-of-Order Simulator ***

Warmup Instructions: 50000000
Simulation Instructions: 50000000
Number of CPUs: 1
LLC sets: 2048
LLC ways: 16
Off-chip DRAM Size: 4096 MB Channels: 1 Width: 64-bit Data Rate: 3200 MT/s

CPU 0 runs /home/tapatil/CSE240C/SA1/ChampSim-master/ipc1_public/spec_perlbench_001.champsimtrace.xz
L1I D-JOLT instruction prefetcher has been constructed!
CPU 0 L1D next line prefetcher
Heartbeat CPU 0 instructions: 10000000 cycles: 3276156 heartbeat IPC: 3.05236 cumulative IPC: 3.05236 (Simulation time: 0 hr 0 min 30 sec) 
Heartbeat CPU 0 instructions: 20000000 cycles: 6541654 heartbeat IPC: 3.06232 cumulative IPC: 3.05733 (Simulation time: 0 hr 1 min 2 sec) 
Heartbeat CPU 0 instructions: 30000002 cycles: 9860001 heartbeat IPC: 3.01355 cumulative IPC: 3.0426 (Simulation time: 0 hr 1 min 34 sec) 
Heartbeat CPU 0 instructions: 40000002 cycles: 13116266 heartbeat IPC: 3.071 cumulative IPC: 3.04965 (Simulation time: 0 hr 2 min 3 sec) 
Heartbeat CPU 0 instructions: 50000001 cycles: 16390774 heartbeat IPC: 3.05389 cumulative IPC: 3.0505 (Simulation time: 0 hr 2 min 33 sec) 

Warmup complete CPU 0 instructions: 50000001 cycles: 16390774 (Simulation time: 0 hr 2 min 33 sec) 

Heartbeat CPU 0 instructions: 60000001 cycles: 24721811 heartbeat IPC: 1.20033 cumulative IPC: 1.20033 (Simulation time: 0 hr 3 min 4 sec) 
Heartbeat CPU 0 instructions: 70000003 cycles: 32914813 heartbeat IPC: 1.22055 cumulative IPC: 1.21036 (Simulation time: 0 hr 3 min 36 sec) 
Heartbeat CPU 0 instructions: 80000000 cycles: 41379876 heartbeat IPC: 1.18133 cumulative IPC: 1.20052 (Simulation time: 0 hr 4 min 6 sec) 
Heartbeat CPU 0 instructions: 90000000 cycles: 47131498 heartbeat IPC: 1.73864 cumulative IPC: 1.30121 (Simulation time: 0 hr 4 min 31 sec) 
Heartbeat CPU 0 instructions: 100000002 cycles: 53031654 heartbeat IPC: 1.69487 cumulative IPC: 1.3646 (Simulation time: 0 hr 4 min 55 sec) 
Finished CPU 0 instructions: 50000001 cycles: 36640880 cumulative IPC: 1.3646 (Simulation time: 0 hr 4 min 55 sec) 

ChampSim completed all CPUs

Region of Interest Statistics

CPU 0 cumulative IPC: 1.3646 instructions: 50000001 cycles: 36640880
L1D TOTAL     ACCESS:   20682832  HIT:   20267739  MISS:     415093
L1D LOAD      ACCESS:    7171192  HIT:    6957428  MISS:     213764
L1D RFO       ACCESS:    6542215  HIT:    6523688  MISS:      18527
L1D PREFETCH  ACCESS:    6969425  HIT:    6786623  MISS:     182802
L1D WRITEBACK ACCESS:          0  HIT:          0  MISS:          0
L1D PREFETCH  REQUESTED:    7186991  ISSUED:    7070633  USEFUL:      55121  USELESS:     127676
L1D AVERAGE MISS LATENCY: 59.4462 cycles
L1I TOTAL     ACCESS:   15305122  HIT:   13997114  MISS:    1308008
L1I LOAD      ACCESS:    9177042  HIT:    9116481  MISS:      60561
L1I RFO       ACCESS:          0  HIT:          0  MISS:          0
L1I PREFETCH  ACCESS:    6128080  HIT:    4880633  MISS:    1247447
L1I WRITEBACK ACCESS:          0  HIT:          0  MISS:          0
L1I PREFETCH  REQUESTED:    6566533  ISSUED:    6334479  USEFUL:     558240  USELESS:     689225
L1I AVERAGE MISS LATENCY: 16.418 cycles
L2C TOTAL     ACCESS:    2439622  HIT:    2267932  MISS:     171690
L2C LOAD      ACCESS:     265466  HIT:     182823  MISS:      82643
L2C RFO       ACCESS:      18277  HIT:      12631  MISS:       5646
L2C PREFETCH  ACCESS:    2076920  HIT:    1993980  MISS:      82940
L2C WRITEBACK ACCESS:      78959  HIT:      78498  MISS:        461
L2C PREFETCH  REQUESTED:    1316031  ISSUED:    1315837  USEFUL:       7254  USELESS:      75715
L2C AVERAGE MISS LATENCY: 118.4 cycles
LLC TOTAL     ACCESS:     432778  HIT:     288604  MISS:     144174
LLC LOAD      ACCESS:      82640  HIT:      32330  MISS:      50310
LLC RFO       ACCESS:       5646  HIT:       2543  MISS:       3103
LLC PREFETCH  ACCESS:     318153  HIT:     227860  MISS:      90293
LLC WRITEBACK ACCESS:      26339  HIT:      25871  MISS:        468
LLC PREFETCH  REQUESTED:          0  ISSUED:          0  USEFUL:      13701  USELESS:      76626
LLC AVERAGE MISS LATENCY: 159.956 cycles
Major fault: 0 Minor fault: 6365
CPU 0 L1D next line prefetcher final stats

DRAM Statistics
 CHANNEL 0
 RQ ROW_BUFFER_HIT:      32475  ROW_BUFFER_MISS:     111230
 DBUS_CONGESTED:      55796
 WQ ROW_BUFFER_HIT:       4375  ROW_BUFFER_MISS:      13048  FULL:          0

 AVG_CONGESTED_CYCLE: 4

CPU 0 Branch Prediction Accuracy: 98.7418% MPKI: 2.47758 Average ROB Occupancy at Mispredict: 79.2187

Branch types
NOT_BRANCH: 40154100 80.3082%
BRANCH_DIRECT_JUMP: 817094 1.63419%
BRANCH_INDIRECT: 303787 0.607574%
BRANCH_CONDITIONAL: 7492103 14.9842%
BRANCH_DIRECT_CALL: 471777 0.943554%
BRANCH_INDIRECT_CALL: 144546 0.289092%
BRANCH_RETURN: 616324 1.23265%
BRANCH_OTHER: 0 0%

