Initialize SIGNATURE TABLE
ST_SET: 1
ST_WAY: 256
ST_TAG_BIT: 16
ST_TAG_MASK: ffff

Initialize PATTERN TABLE
PT_SET: 512
PT_WAY: 4
SIG_DELTA_BIT: 7
C_SIG_BIT: 4
C_DELTA_BIT: 4

Initialize PREFETCH FILTER
FILTER_SET: 1024

*** ChampSim Multicore Out-of-Order Simulator ***

Warmup Instructions: 50000000
Simulation Instructions: 50000000
Number of CPUs: 1
LLC sets: 2048
LLC ways: 16
Off-chip DRAM Size: 4096 MB Channels: 1 Width: 64-bit Data Rate: 3200 MT/s

CPU 0 runs /home/tapatil/CSE240C/SA1/ChampSim-master/ipc1_public/spec_gcc_003.champsimtrace.xz
L1I D-JOLT instruction prefetcher has been constructed!
CPU 0 L1D next line prefetcher
Heartbeat CPU 0 instructions: 10000001 cycles: 3495810 heartbeat IPC: 2.86057 cumulative IPC: 2.86057 (Simulation time: 0 hr 0 min 27 sec) 
Heartbeat CPU 0 instructions: 20000000 cycles: 6961316 heartbeat IPC: 2.88558 cumulative IPC: 2.87302 (Simulation time: 0 hr 0 min 52 sec) 
Heartbeat CPU 0 instructions: 30000002 cycles: 10401892 heartbeat IPC: 2.90649 cumulative IPC: 2.88409 (Simulation time: 0 hr 1 min 17 sec) 
Heartbeat CPU 0 instructions: 40000000 cycles: 13869137 heartbeat IPC: 2.88413 cumulative IPC: 2.8841 (Simulation time: 0 hr 1 min 42 sec) 
Heartbeat CPU 0 instructions: 50000001 cycles: 17176806 heartbeat IPC: 3.02328 cumulative IPC: 2.9109 (Simulation time: 0 hr 2 min 7 sec) 

Warmup complete CPU 0 instructions: 50000001 cycles: 17176806 (Simulation time: 0 hr 2 min 7 sec) 

Heartbeat CPU 0 instructions: 60000000 cycles: 56929649 heartbeat IPC: 0.251554 cumulative IPC: 0.251554 (Simulation time: 0 hr 3 min 18 sec) 
Heartbeat CPU 0 instructions: 70000000 cycles: 99693658 heartbeat IPC: 0.233841 cumulative IPC: 0.242375 (Simulation time: 0 hr 4 min 33 sec) 
Heartbeat CPU 0 instructions: 80000003 cycles: 143399175 heartbeat IPC: 0.228804 cumulative IPC: 0.237676 (Simulation time: 0 hr 5 min 50 sec) 
Heartbeat CPU 0 instructions: 90000002 cycles: 180376821 heartbeat IPC: 0.270434 cumulative IPC: 0.245098 (Simulation time: 0 hr 6 min 56 sec) 
Heartbeat CPU 0 instructions: 100000001 cycles: 226865086 heartbeat IPC: 0.215108 cumulative IPC: 0.238449 (Simulation time: 0 hr 8 min 15 sec) 
Finished CPU 0 instructions: 50000000 cycles: 209688280 cumulative IPC: 0.238449 (Simulation time: 0 hr 8 min 15 sec) 

ChampSim completed all CPUs

Region of Interest Statistics

CPU 0 cumulative IPC: 0.238449 instructions: 50000000 cycles: 209688280
L1D TOTAL     ACCESS:   16803211  HIT:   11078946  MISS:    5724265
L1D LOAD      ACCESS:    4545200  HIT:    4162010  MISS:     383190
L1D RFO       ACCESS:    8202731  HIT:    3151059  MISS:    5051672
L1D PREFETCH  ACCESS:    4055280  HIT:    3765877  MISS:     289403
L1D WRITEBACK ACCESS:          0  HIT:          0  MISS:          0
L1D PREFETCH  REQUESTED:    4562593  ISSUED:    4502885  USEFUL:     152069  USELESS:     137514
L1D AVERAGE MISS LATENCY: 500.441 cycles
L1I TOTAL     ACCESS:   15741658  HIT:   14412024  MISS:    1329634
L1I LOAD      ACCESS:   11285913  HIT:   11222925  MISS:      62988
L1I RFO       ACCESS:          0  HIT:          0  MISS:          0
L1I PREFETCH  ACCESS:    4455745  HIT:    3189099  MISS:    1266646
L1I WRITEBACK ACCESS:          0  HIT:          0  MISS:          0
L1I PREFETCH  REQUESTED:    5010058  ISSUED:    4787213  USEFUL:     795049  USELESS:     471603
L1I AVERAGE MISS LATENCY: 63.5263 cycles
L2C TOTAL     ACCESS:   12618926  HIT:    6526370  MISS:    6092556
L2C LOAD      ACCESS:     236102  HIT:      64164  MISS:     171938
L2C RFO       ACCESS:    5049812  HIT:       6436  MISS:    5043376
L2C PREFETCH  ACCESS:    2175134  HIT:    1298538  MISS:     876596
L2C WRITEBACK ACCESS:    5157878  HIT:    5157232  MISS:        646
L2C PREFETCH  REQUESTED:    2031112  ISSUED:    2031032  USEFUL:      24681  USELESS:     849034
L2C AVERAGE MISS LATENCY: 470.685 cycles
LLC TOTAL     ACCESS:   12014448  HIT:    7258588  MISS:    4755860
LLC LOAD      ACCESS:     171886  HIT:     128760  MISS:      43126
LLC RFO       ACCESS:    5043376  HIT:     639336  MISS:    4404040
LLC PREFETCH  ACCESS:    1665432  HIT:    1356738  MISS:     308694
LLC WRITEBACK ACCESS:    5133754  HIT:    5133754  MISS:          0
LLC PREFETCH  REQUESTED:          0  ISSUED:          0  USEFUL:      11759  USELESS:     296763
LLC AVERAGE MISS LATENCY: 575.058 cycles
Major fault: 0 Minor fault: 2819
CPU 0 L1D next line prefetcher final stats

DRAM Statistics
 CHANNEL 0
 RQ ROW_BUFFER_HIT:    1445295  ROW_BUFFER_MISS:    3310205
 DBUS_CONGESTED:    8202416
 WQ ROW_BUFFER_HIT:    1174705  ROW_BUFFER_MISS:    3259091  FULL:          0

 AVG_CONGESTED_CYCLE: 6

CPU 0 Branch Prediction Accuracy: 99.665% MPKI: 0.78342 Average ROB Occupancy at Mispredict: 124.16

Branch types
NOT_BRANCH: 38305856 76.6117%
BRANCH_DIRECT_JUMP: 384281 0.768562%
BRANCH_INDIRECT: 71949 0.143898%
BRANCH_CONDITIONAL: 9879825 19.7597%
BRANCH_DIRECT_CALL: 650586 1.30117%
BRANCH_INDIRECT_CALL: 28456 0.056912%
BRANCH_RETURN: 679046 1.35809%
BRANCH_OTHER: 0 0%

