Initialize SIGNATURE TABLE
ST_SET: 1
ST_WAY: 256
ST_TAG_BIT: 16
ST_TAG_MASK: ffff

Initialize PATTERN TABLE
PT_SET: 512
PT_WAY: 4
SIG_DELTA_BIT: 7
C_SIG_BIT: 4
C_DELTA_BIT: 4

Initialize PREFETCH FILTER
FILTER_SET: 1024

*** ChampSim Multicore Out-of-Order Simulator ***

Warmup Instructions: 50000000
Simulation Instructions: 50000000
Number of CPUs: 1
LLC sets: 2048
LLC ways: 16
Off-chip DRAM Size: 4096 MB Channels: 1 Width: 64-bit Data Rate: 3200 MT/s

CPU 0 runs /home/tapatil/CSE240C/SA1/ChampSim-master/ipc1_public/spec_x264_001.champsimtrace.xz
CPU 0 EPI prefetcher
CPU 0 L1D next line prefetcher
Heartbeat CPU 0 instructions: 10000002 cycles: 3059967 heartbeat IPC: 3.26801 cumulative IPC: 3.26801 (Simulation time: 0 hr 0 min 25 sec) 
Heartbeat CPU 0 instructions: 20000002 cycles: 6110097 heartbeat IPC: 3.27855 cumulative IPC: 3.27327 (Simulation time: 0 hr 0 min 50 sec) 
Heartbeat CPU 0 instructions: 30000002 cycles: 9145780 heartbeat IPC: 3.29415 cumulative IPC: 3.2802 (Simulation time: 0 hr 1 min 15 sec) 
Heartbeat CPU 0 instructions: 40000000 cycles: 12190384 heartbeat IPC: 3.2845 cumulative IPC: 3.28127 (Simulation time: 0 hr 1 min 40 sec) 
Heartbeat CPU 0 instructions: 50000000 cycles: 15233374 heartbeat IPC: 3.28624 cumulative IPC: 3.28227 (Simulation time: 0 hr 2 min 6 sec) 

Warmup complete CPU 0 instructions: 50000004 cycles: 15233375 (Simulation time: 0 hr 2 min 6 sec) 

Heartbeat CPU 0 instructions: 60000002 cycles: 21160811 heartbeat IPC: 1.68707 cumulative IPC: 1.68707 (Simulation time: 0 hr 2 min 24 sec) 
Heartbeat CPU 0 instructions: 70000000 cycles: 27067433 heartbeat IPC: 1.69301 cumulative IPC: 1.69004 (Simulation time: 0 hr 2 min 42 sec) 
Heartbeat CPU 0 instructions: 80000003 cycles: 33119601 heartbeat IPC: 1.6523 cumulative IPC: 1.67727 (Simulation time: 0 hr 3 min 1 sec) 
Heartbeat CPU 0 instructions: 90000002 cycles: 39153449 heartbeat IPC: 1.65732 cumulative IPC: 1.67224 (Simulation time: 0 hr 3 min 19 sec) 
Heartbeat CPU 0 instructions: 100000002 cycles: 45048500 heartbeat IPC: 1.69634 cumulative IPC: 1.677 (Simulation time: 0 hr 3 min 37 sec) 
Finished CPU 0 instructions: 50000002 cycles: 29815126 cumulative IPC: 1.677 (Simulation time: 0 hr 3 min 37 sec) 

ChampSim completed all CPUs

Region of Interest Statistics

CPU 0 cumulative IPC: 1.677 instructions: 50000002 cycles: 29815126
L1D TOTAL     ACCESS:   12953457  HIT:   12792452  MISS:     161005
L1D LOAD      ACCESS:    5090744  HIT:    5035570  MISS:      55174
L1D RFO       ACCESS:    2880171  HIT:    2845934  MISS:      34237
L1D PREFETCH  ACCESS:    4982542  HIT:    4910948  MISS:      71594
L1D WRITEBACK ACCESS:          0  HIT:          0  MISS:          0
L1D PREFETCH  REQUESTED:    5107120  ISSUED:    5039617  USEFUL:      25748  USELESS:      45655
L1D AVERAGE MISS LATENCY: 40.2784 cycles
L1I TOTAL     ACCESS:   20667102  HIT:   20329538  MISS:     337564
L1I LOAD      ACCESS:    8032542  HIT:    8029290  MISS:       3252
L1I RFO       ACCESS:          0  HIT:          0  MISS:          0
L1I PREFETCH  ACCESS:   12634560  HIT:   12300248  MISS:     334312
L1I WRITEBACK ACCESS:          0  HIT:          0  MISS:          0
L1I PREFETCH  REQUESTED:   15467865  ISSUED:   15467865  USEFUL:     271268  USELESS:      63039
L1I AVERAGE MISS LATENCY: 15.05 cycles
L2C TOTAL     ACCESS:     740144  HIT:     701081  MISS:      39063
L2C LOAD      ACCESS:      56445  HIT:      51136  MISS:       5309
L2C RFO       ACCESS:      33988  HIT:      21923  MISS:      12065
L2C PREFETCH  ACCESS:     606672  HIT:     585058  MISS:      21614
L2C WRITEBACK ACCESS:      43039  HIT:      42964  MISS:         75
L2C PREFETCH  REQUESTED:     630863  ISSUED:     629703  USEFUL:       8902  USELESS:      12920
L2C AVERAGE MISS LATENCY: 105.619 cycles
LLC TOTAL     ACCESS:     116888  HIT:      87474  MISS:      29414
LLC LOAD      ACCESS:       5302  HIT:       3159  MISS:       2143
LLC RFO       ACCESS:      12065  HIT:        457  MISS:      11608
LLC PREFETCH  ACCESS:      85922  HIT:      70329  MISS:      15593
LLC WRITEBACK ACCESS:      13599  HIT:      13529  MISS:         70
LLC PREFETCH  REQUESTED:          0  ISSUED:          0  USEFUL:       1732  USELESS:      14086
LLC AVERAGE MISS LATENCY: 166.948 cycles
Major fault: 0 Minor fault: 1285
CPU 0 L1I EPI prefetcher final stats
CPU 0 L1D next line prefetcher final stats

DRAM Statistics
 CHANNEL 0
 RQ ROW_BUFFER_HIT:       8805  ROW_BUFFER_MISS:      20539
 DBUS_CONGESTED:      12509
 WQ ROW_BUFFER_HIT:       2935  ROW_BUFFER_MISS:       9939  FULL:          0

 AVG_CONGESTED_CYCLE: 6

CPU 0 Branch Prediction Accuracy: 97.1633% MPKI: 1.73704 Average ROB Occupancy at Mispredict: 43.2341

Branch types
NOT_BRANCH: 46937921 93.8758%
BRANCH_DIRECT_JUMP: 170816 0.341632%
BRANCH_INDIRECT: 0 0%
BRANCH_CONDITIONAL: 2532774 5.06555%
BRANCH_DIRECT_CALL: 114227 0.228454%
BRANCH_INDIRECT_CALL: 64863 0.129726%
BRANCH_RETURN: 179089 0.358178%
BRANCH_OTHER: 0 0%

