Initialize SIGNATURE TABLE
ST_SET: 1
ST_WAY: 256
ST_TAG_BIT: 16
ST_TAG_MASK: ffff

Initialize PATTERN TABLE
PT_SET: 512
PT_WAY: 4
SIG_DELTA_BIT: 7
C_SIG_BIT: 4
C_DELTA_BIT: 4

Initialize PREFETCH FILTER
FILTER_SET: 1024

*** ChampSim Multicore Out-of-Order Simulator ***

Warmup Instructions: 50000000
Simulation Instructions: 50000000
Number of CPUs: 1
LLC sets: 2048
LLC ways: 16
Off-chip DRAM Size: 4096 MB Channels: 1 Width: 64-bit Data Rate: 3200 MT/s

CPU 0 runs /home/tapatil/CSE240C/SA1/ChampSim-master/ipc1_public/spec_gcc_003.champsimtrace.xz
CPU 0 EPI prefetcher
CPU 0 L1D next line prefetcher
Heartbeat CPU 0 instructions: 10000001 cycles: 3498568 heartbeat IPC: 2.85831 cumulative IPC: 2.85831 (Simulation time: 0 hr 0 min 31 sec) 
Heartbeat CPU 0 instructions: 20000000 cycles: 6965970 heartbeat IPC: 2.884 cumulative IPC: 2.8711 (Simulation time: 0 hr 1 min 1 sec) 
Heartbeat CPU 0 instructions: 30000002 cycles: 10435275 heartbeat IPC: 2.88242 cumulative IPC: 2.87486 (Simulation time: 0 hr 1 min 30 sec) 
Heartbeat CPU 0 instructions: 40000000 cycles: 13935812 heartbeat IPC: 2.8567 cumulative IPC: 2.8703 (Simulation time: 0 hr 2 min 0 sec) 
Heartbeat CPU 0 instructions: 50000001 cycles: 17253847 heartbeat IPC: 3.01383 cumulative IPC: 2.8979 (Simulation time: 0 hr 2 min 30 sec) 

Warmup complete CPU 0 instructions: 50000001 cycles: 17253847 (Simulation time: 0 hr 2 min 30 sec) 

Heartbeat CPU 0 instructions: 60000000 cycles: 57768328 heartbeat IPC: 0.246825 cumulative IPC: 0.246825 (Simulation time: 0 hr 3 min 49 sec) 
Heartbeat CPU 0 instructions: 70000000 cycles: 101393043 heartbeat IPC: 0.229228 cumulative IPC: 0.237701 (Simulation time: 0 hr 5 min 3 sec) 
Heartbeat CPU 0 instructions: 80000003 cycles: 145650585 heartbeat IPC: 0.22595 cumulative IPC: 0.233651 (Simulation time: 0 hr 6 min 19 sec) 
Heartbeat CPU 0 instructions: 90000002 cycles: 182765412 heartbeat IPC: 0.269434 cumulative IPC: 0.241675 (Simulation time: 0 hr 7 min 26 sec) 
Heartbeat CPU 0 instructions: 100000001 cycles: 229552022 heartbeat IPC: 0.213736 cumulative IPC: 0.235518 (Simulation time: 0 hr 8 min 36 sec) 
Finished CPU 0 instructions: 50000000 cycles: 212298175 cumulative IPC: 0.235518 (Simulation time: 0 hr 8 min 36 sec) 

ChampSim completed all CPUs

Region of Interest Statistics

CPU 0 cumulative IPC: 0.235518 instructions: 50000000 cycles: 212298175
L1D TOTAL     ACCESS:   16827972  HIT:   11103674  MISS:    5724298
L1D LOAD      ACCESS:    4557117  HIT:    4173932  MISS:     383185
L1D RFO       ACCESS:    8203780  HIT:    3152172  MISS:    5051608
L1D PREFETCH  ACCESS:    4067075  HIT:    3777570  MISS:     289505
L1D WRITEBACK ACCESS:          0  HIT:          0  MISS:          0
L1D PREFETCH  REQUESTED:    4575009  ISSUED:    4514429  USEFUL:     152134  USELESS:     137551
L1D AVERAGE MISS LATENCY: 508.394 cycles
L1I TOTAL     ACCESS:   26935247  HIT:   25914728  MISS:    1020519
L1I LOAD      ACCESS:   11281718  HIT:   11190712  MISS:      91006
L1I RFO       ACCESS:          0  HIT:          0  MISS:          0
L1I PREFETCH  ACCESS:   15653529  HIT:   14724016  MISS:     929513
L1I WRITEBACK ACCESS:          0  HIT:          0  MISS:          0
L1I PREFETCH  REQUESTED:   23234463  ISSUED:   23234463  USEFUL:     690995  USELESS:     238466
L1I AVERAGE MISS LATENCY: 80.0402 cycles
L2C TOTAL     ACCESS:   12188468  HIT:    6146578  MISS:    6041890
L2C LOAD      ACCESS:     261737  HIT:      76579  MISS:     185158
L2C RFO       ACCESS:    5049805  HIT:       6452  MISS:    5043353
L2C PREFETCH  ACCESS:    1719060  HIT:     905970  MISS:     813090
L2C WRITEBACK ACCESS:    5157866  HIT:    5157577  MISS:        289
L2C PREFETCH  REQUESTED:    2063411  ISSUED:    2063234  USEFUL:      30822  USELESS:     779258
L2C AVERAGE MISS LATENCY: 481.736 cycles
LLC TOTAL     ACCESS:   11922840  HIT:    7125672  MISS:    4797168
LLC LOAD      ACCESS:     185112  HIT:     137809  MISS:      47303
LLC RFO       ACCESS:    5043354  HIT:     577570  MISS:    4465784
LLC PREFETCH  ACCESS:    1560468  HIT:    1276387  MISS:     284081
LLC WRITEBACK ACCESS:    5133906  HIT:    5133906  MISS:          0
LLC PREFETCH  REQUESTED:          0  ISSUED:          0  USEFUL:      14486  USELESS:     269514
LLC AVERAGE MISS LATENCY: 577.605 cycles
Major fault: 0 Minor fault: 2821
CPU 0 L1I EPI prefetcher final stats
CPU 0 L1D next line prefetcher final stats

DRAM Statistics
 CHANNEL 0
 RQ ROW_BUFFER_HIT:    1458830  ROW_BUFFER_MISS:    3338310
 DBUS_CONGESTED:    8325670
 WQ ROW_BUFFER_HIT:    1199311  ROW_BUFFER_MISS:    3295121  FULL:          0

 AVG_CONGESTED_CYCLE: 6

CPU 0 Branch Prediction Accuracy: 99.665% MPKI: 0.78342 Average ROB Occupancy at Mispredict: 122.983

Branch types
NOT_BRANCH: 38305858 76.6117%
BRANCH_DIRECT_JUMP: 384281 0.768562%
BRANCH_INDIRECT: 71949 0.143898%
BRANCH_CONDITIONAL: 9879825 19.7597%
BRANCH_DIRECT_CALL: 650586 1.30117%
BRANCH_INDIRECT_CALL: 28456 0.056912%
BRANCH_RETURN: 679046 1.35809%
BRANCH_OTHER: 0 0%

