Initialize SIGNATURE TABLE
ST_SET: 1
ST_WAY: 256
ST_TAG_BIT: 16
ST_TAG_MASK: ffff

Initialize PATTERN TABLE
PT_SET: 512
PT_WAY: 4
SIG_DELTA_BIT: 7
C_SIG_BIT: 4
C_DELTA_BIT: 4

Initialize PREFETCH FILTER
FILTER_SET: 1024

*** ChampSim Multicore Out-of-Order Simulator ***

Warmup Instructions: 50000000
Simulation Instructions: 50000000
Number of CPUs: 1
LLC sets: 2048
LLC ways: 16
Off-chip DRAM Size: 4096 MB Channels: 1 Width: 64-bit Data Rate: 3200 MT/s

CPU 0 runs /home/tapatil/CSE240C/SA1/ChampSim-master/ipc1_public/spec_gcc_001.champsimtrace.xz
CPU 0 EPI prefetcher
CPU 0 L1D next line prefetcher
Heartbeat CPU 0 instructions: 10000003 cycles: 3219362 heartbeat IPC: 3.10621 cumulative IPC: 3.10621 (Simulation time: 0 hr 0 min 38 sec) 
Heartbeat CPU 0 instructions: 20000002 cycles: 6464635 heartbeat IPC: 3.0814 cumulative IPC: 3.09376 (Simulation time: 0 hr 1 min 17 sec) 
Heartbeat CPU 0 instructions: 30000000 cycles: 9666197 heartbeat IPC: 3.12347 cumulative IPC: 3.1036 (Simulation time: 0 hr 1 min 56 sec) 
Heartbeat CPU 0 instructions: 40000001 cycles: 12906917 heartbeat IPC: 3.08573 cumulative IPC: 3.09911 (Simulation time: 0 hr 2 min 35 sec) 
Heartbeat CPU 0 instructions: 50000001 cycles: 16147927 heartbeat IPC: 3.08546 cumulative IPC: 3.09637 (Simulation time: 0 hr 3 min 14 sec) 

Warmup complete CPU 0 instructions: 50000001 cycles: 16147927 (Simulation time: 0 hr 3 min 14 sec) 

Heartbeat CPU 0 instructions: 60000000 cycles: 23905082 heartbeat IPC: 1.28913 cumulative IPC: 1.28913 (Simulation time: 0 hr 3 min 50 sec) 
Heartbeat CPU 0 instructions: 70000002 cycles: 31718735 heartbeat IPC: 1.27981 cumulative IPC: 1.28445 (Simulation time: 0 hr 4 min 27 sec) 
Heartbeat CPU 0 instructions: 80000000 cycles: 39223139 heartbeat IPC: 1.33255 cumulative IPC: 1.3001 (Simulation time: 0 hr 5 min 4 sec) 
Heartbeat CPU 0 instructions: 90000001 cycles: 47040658 heartbeat IPC: 1.27918 cumulative IPC: 1.2948 (Simulation time: 0 hr 5 min 41 sec) 
Heartbeat CPU 0 instructions: 100000000 cycles: 55110684 heartbeat IPC: 1.23915 cumulative IPC: 1.28328 (Simulation time: 0 hr 6 min 19 sec) 
Finished CPU 0 instructions: 50000000 cycles: 38962761 cumulative IPC: 1.28328 (Simulation time: 0 hr 6 min 19 sec) 

ChampSim completed all CPUs

Region of Interest Statistics

CPU 0 cumulative IPC: 1.28328 instructions: 50000000 cycles: 38962761
L1D TOTAL     ACCESS:   19302253  HIT:   18197104  MISS:    1105149
L1D LOAD      ACCESS:    7222459  HIT:    6742824  MISS:     479635
L1D RFO       ACCESS:    5116171  HIT:    5036544  MISS:      79627
L1D PREFETCH  ACCESS:    6963623  HIT:    6417736  MISS:     545887
L1D WRITEBACK ACCESS:          0  HIT:          0  MISS:          0
L1D PREFETCH  REQUESTED:    7266464  ISSUED:    7168963  USEFUL:     275637  USELESS:     270262
L1D AVERAGE MISS LATENCY: 25.7631 cycles
L1I TOTAL     ACCESS:   35734407  HIT:   35004581  MISS:     729826
L1I LOAD      ACCESS:    9282855  HIT:    9241820  MISS:      41035
L1I RFO       ACCESS:          0  HIT:          0  MISS:          0
L1I PREFETCH  ACCESS:   26451552  HIT:   25762761  MISS:     688791
L1I WRITEBACK ACCESS:          0  HIT:          0  MISS:          0
L1I PREFETCH  REQUESTED:   33855151  ISSUED:   33855151  USEFUL:     382993  USELESS:     305780
L1I AVERAGE MISS LATENCY: 19.0606 cycles
L2C TOTAL     ACCESS:    3039497  HIT:    2777366  MISS:     262131
L2C LOAD      ACCESS:     481369  HIT:     399568  MISS:      81801
L2C RFO       ACCESS:      74980  HIT:      36081  MISS:      38899
L2C PREFETCH  ACCESS:    2229393  HIT:    2088488  MISS:     140905
L2C WRITEBACK ACCESS:     253755  HIT:     253229  MISS:        526
L2C PREFETCH  REQUESTED:    2111956  ISSUED:    2111509  USEFUL:      32184  USELESS:     108168
L2C AVERAGE MISS LATENCY: 62.5101 cycles
LLC TOTAL     ACCESS:     708204  HIT:     635258  MISS:      72946
LLC LOAD      ACCESS:      81582  HIT:      71423  MISS:      10159
LLC RFO       ACCESS:      38896  HIT:      18217  MISS:      20679
LLC PREFETCH  ACCESS:     494000  HIT:     452871  MISS:      41129
LLC WRITEBACK ACCESS:      93726  HIT:      92747  MISS:        979
LLC PREFETCH  REQUESTED:          0  ISSUED:          0  USEFUL:      13302  USELESS:      27351
LLC AVERAGE MISS LATENCY: 188.79 cycles
Major fault: 0 Minor fault: 6868
CPU 0 L1I EPI prefetcher final stats
CPU 0 L1D next line prefetcher final stats

DRAM Statistics
 CHANNEL 0
 RQ ROW_BUFFER_HIT:      19721  ROW_BUFFER_MISS:      52246
 DBUS_CONGESTED:      38149
 WQ ROW_BUFFER_HIT:       4300  ROW_BUFFER_MISS:      23425  FULL:          0

 AVG_CONGESTED_CYCLE: 6

CPU 0 Branch Prediction Accuracy: 95.8872% MPKI: 9.67286 Average ROB Occupancy at Mispredict: 67.9585

Branch types
NOT_BRANCH: 38240102 76.4802%
BRANCH_DIRECT_JUMP: 653296 1.30659%
BRANCH_INDIRECT: 37098 0.074196%
BRANCH_CONDITIONAL: 8897819 17.7956%
BRANCH_DIRECT_CALL: 992620 1.98524%
BRANCH_INDIRECT_CALL: 93046 0.186092%
BRANCH_RETURN: 1085674 2.17135%
BRANCH_OTHER: 0 0%

