Initialize SIGNATURE TABLE
ST_SET: 1
ST_WAY: 256
ST_TAG_BIT: 16
ST_TAG_MASK: ffff

Initialize PATTERN TABLE
PT_SET: 512
PT_WAY: 4
SIG_DELTA_BIT: 7
C_SIG_BIT: 4
C_DELTA_BIT: 4

Initialize PREFETCH FILTER
FILTER_SET: 1024

*** ChampSim Multicore Out-of-Order Simulator ***

Warmup Instructions: 50000000
Simulation Instructions: 50000000
Number of CPUs: 1
LLC sets: 2048
LLC ways: 16
Off-chip DRAM Size: 4096 MB Channels: 1 Width: 64-bit Data Rate: 3200 MT/s

CPU 0 runs /home/tapatil/CSE240C/SA1/ChampSim-master/ipc1_public/spec_gobmk_001.champsimtrace.xz
CPU 0 EPI prefetcher
CPU 0 L1D next line prefetcher
Heartbeat CPU 0 instructions: 10000003 cycles: 3508205 heartbeat IPC: 2.85046 cumulative IPC: 2.85046 (Simulation time: 0 hr 0 min 35 sec) 
Heartbeat CPU 0 instructions: 20000002 cycles: 6988843 heartbeat IPC: 2.87304 cumulative IPC: 2.8617 (Simulation time: 0 hr 1 min 10 sec) 
Heartbeat CPU 0 instructions: 30000002 cycles: 10508340 heartbeat IPC: 2.84132 cumulative IPC: 2.85488 (Simulation time: 0 hr 1 min 45 sec) 
Heartbeat CPU 0 instructions: 40000001 cycles: 14027945 heartbeat IPC: 2.84123 cumulative IPC: 2.85145 (Simulation time: 0 hr 2 min 20 sec) 
Heartbeat CPU 0 instructions: 50000001 cycles: 17568415 heartbeat IPC: 2.82448 cumulative IPC: 2.84602 (Simulation time: 0 hr 2 min 57 sec) 

Warmup complete CPU 0 instructions: 50000001 cycles: 17568415 (Simulation time: 0 hr 2 min 57 sec) 

Heartbeat CPU 0 instructions: 60000000 cycles: 26348611 heartbeat IPC: 1.13893 cumulative IPC: 1.13893 (Simulation time: 0 hr 3 min 30 sec) 
Heartbeat CPU 0 instructions: 70000002 cycles: 34777801 heartbeat IPC: 1.18635 cumulative IPC: 1.16216 (Simulation time: 0 hr 4 min 1 sec) 
Heartbeat CPU 0 instructions: 80000003 cycles: 43621480 heartbeat IPC: 1.13075 cumulative IPC: 1.1515 (Simulation time: 0 hr 4 min 30 sec) 
Heartbeat CPU 0 instructions: 90000001 cycles: 52136072 heartbeat IPC: 1.17445 cumulative IPC: 1.15715 (Simulation time: 0 hr 4 min 58 sec) 
Heartbeat CPU 0 instructions: 100000003 cycles: 60975409 heartbeat IPC: 1.13131 cumulative IPC: 1.15189 (Simulation time: 0 hr 5 min 28 sec) 
Finished CPU 0 instructions: 50000002 cycles: 43406994 cumulative IPC: 1.15189 (Simulation time: 0 hr 5 min 28 sec) 

ChampSim completed all CPUs

Region of Interest Statistics

CPU 0 cumulative IPC: 1.15189 instructions: 50000002 cycles: 43406994
L1D TOTAL     ACCESS:   17985529  HIT:   17606015  MISS:     379514
L1D LOAD      ACCESS:    7211145  HIT:    7076924  MISS:     134221
L1D RFO       ACCESS:    3701666  HIT:    3597109  MISS:     104557
L1D PREFETCH  ACCESS:    7072718  HIT:    6931982  MISS:     140736
L1D WRITEBACK ACCESS:          0  HIT:          0  MISS:          0
L1D PREFETCH  REQUESTED:    7216664  ISSUED:    7133966  USEFUL:      46035  USELESS:      94706
L1D AVERAGE MISS LATENCY: 34.0614 cycles
L1I TOTAL     ACCESS:   45806761  HIT:   44633190  MISS:    1173571
L1I LOAD      ACCESS:    8940457  HIT:    8842946  MISS:      97511
L1I RFO       ACCESS:          0  HIT:          0  MISS:          0
L1I PREFETCH  ACCESS:   36866304  HIT:   35790244  MISS:    1076060
L1I WRITEBACK ACCESS:          0  HIT:          0  MISS:          0
L1I PREFETCH  REQUESTED:   53368476  ISSUED:   53368476  USEFUL:     572410  USELESS:     503642
L1I AVERAGE MISS LATENCY: 15.1457 cycles
L2C TOTAL     ACCESS:    2451961  HIT:    2323068  MISS:     128893
L2C LOAD      ACCESS:     188969  HIT:     154059  MISS:      34910
L2C RFO       ACCESS:     104196  HIT:      69779  MISS:      34417
L2C PREFETCH  ACCESS:    2019497  HIT:    1959996  MISS:      59501
L2C WRITEBACK ACCESS:     139299  HIT:     139234  MISS:         65
L2C PREFETCH  REQUESTED:    2009328  ISSUED:    2008942  USEFUL:       4814  USELESS:      54979
L2C AVERAGE MISS LATENCY: 65.5025 cycles
LLC TOTAL     ACCESS:     296939  HIT:     255742  MISS:      41197
LLC LOAD      ACCESS:      34909  HIT:      26714  MISS:       8195
LLC RFO       ACCESS:      34417  HIT:      26794  MISS:       7623
LLC PREFETCH  ACCESS:     182403  HIT:     157337  MISS:      25066
LLC WRITEBACK ACCESS:      45210  HIT:      44897  MISS:        313
LLC PREFETCH  REQUESTED:          0  ISSUED:          0  USEFUL:       1386  USELESS:      21658
LLC AVERAGE MISS LATENCY: 177.895 cycles
Major fault: 0 Minor fault: 4156
CPU 0 L1I EPI prefetcher final stats
CPU 0 L1D next line prefetcher final stats

DRAM Statistics
 CHANNEL 0
 RQ ROW_BUFFER_HIT:       5283  ROW_BUFFER_MISS:      35601
 DBUS_CONGESTED:      26117
 WQ ROW_BUFFER_HIT:       1660  ROW_BUFFER_MISS:      16148  FULL:          0

 AVG_CONGESTED_CYCLE: 5

CPU 0 Branch Prediction Accuracy: 94.7729% MPKI: 9.72684 Average ROB Occupancy at Mispredict: 54.1247

Branch types
NOT_BRANCH: 40695383 81.3908%
BRANCH_DIRECT_JUMP: 422107 0.844214%
BRANCH_INDIRECT: 65 0.00013%
BRANCH_CONDITIONAL: 8105005 16.21%
BRANCH_DIRECT_CALL: 374913 0.749826%
BRANCH_INDIRECT_CALL: 13657 0.027314%
BRANCH_RETURN: 388556 0.777112%
BRANCH_OTHER: 0 0%

