Initialize SIGNATURE TABLE
ST_SET: 1
ST_WAY: 256
ST_TAG_BIT: 16
ST_TAG_MASK: ffff

Initialize PATTERN TABLE
PT_SET: 512
PT_WAY: 4
SIG_DELTA_BIT: 7
C_SIG_BIT: 4
C_DELTA_BIT: 4

Initialize PREFETCH FILTER
FILTER_SET: 1024

*** ChampSim Multicore Out-of-Order Simulator ***

Warmup Instructions: 50000000
Simulation Instructions: 50000000
Number of CPUs: 1
LLC sets: 2048
LLC ways: 16
Off-chip DRAM Size: 4096 MB Channels: 1 Width: 64-bit Data Rate: 3200 MT/s

CPU 0 runs /home/tapatil/CSE240C/SA1/ChampSim-master/ipc1_public/spec_gcc_002.champsimtrace.xz
L1I D-JOLT instruction prefetcher has been constructed!
CPU 0 L1D next line prefetcher
Heartbeat CPU 0 instructions: 10000002 cycles: 3532707 heartbeat IPC: 2.83069 cumulative IPC: 2.83069 (Simulation time: 0 hr 0 min 28 sec) 
Heartbeat CPU 0 instructions: 20000000 cycles: 7097093 heartbeat IPC: 2.80553 cumulative IPC: 2.81806 (Simulation time: 0 hr 0 min 55 sec) 
Heartbeat CPU 0 instructions: 30000000 cycles: 10768993 heartbeat IPC: 2.72339 cumulative IPC: 2.78578 (Simulation time: 0 hr 1 min 26 sec) 
Heartbeat CPU 0 instructions: 40000000 cycles: 14315537 heartbeat IPC: 2.81965 cumulative IPC: 2.79417 (Simulation time: 0 hr 1 min 54 sec) 
Heartbeat CPU 0 instructions: 50000002 cycles: 17776687 heartbeat IPC: 2.88921 cumulative IPC: 2.81267 (Simulation time: 0 hr 2 min 20 sec) 

Warmup complete CPU 0 instructions: 50000002 cycles: 17776687 (Simulation time: 0 hr 2 min 20 sec) 

Heartbeat CPU 0 instructions: 60000001 cycles: 57661874 heartbeat IPC: 0.25072 cumulative IPC: 0.25072 (Simulation time: 0 hr 3 min 29 sec) 
Heartbeat CPU 0 instructions: 70000001 cycles: 89805791 heartbeat IPC: 0.311101 cumulative IPC: 0.277666 (Simulation time: 0 hr 4 min 31 sec) 
Heartbeat CPU 0 instructions: 80000002 cycles: 139102837 heartbeat IPC: 0.202852 cumulative IPC: 0.247267 (Simulation time: 0 hr 5 min 53 sec) 
Heartbeat CPU 0 instructions: 90000001 cycles: 183893439 heartbeat IPC: 0.223261 cumulative IPC: 0.240794 (Simulation time: 0 hr 7 min 9 sec) 
Heartbeat CPU 0 instructions: 100000000 cycles: 215600470 heartbeat IPC: 0.315387 cumulative IPC: 0.25275 (Simulation time: 0 hr 8 min 10 sec) 
Finished CPU 0 instructions: 50000002 cycles: 197823791 cumulative IPC: 0.25275 (Simulation time: 0 hr 8 min 10 sec) 

ChampSim completed all CPUs

Region of Interest Statistics

CPU 0 cumulative IPC: 0.25275 instructions: 50000002 cycles: 197823791
L1D TOTAL     ACCESS:   18165073  HIT:   12931625  MISS:    5233448
L1D LOAD      ACCESS:    6327960  HIT:    5269478  MISS:    1058482
L1D RFO       ACCESS:    7025508  HIT:    3424905  MISS:    3600603
L1D PREFETCH  ACCESS:    4811605  HIT:    4237242  MISS:     574363
L1D WRITEBACK ACCESS:          0  HIT:          0  MISS:          0
L1D PREFETCH  REQUESTED:    6348171  ISSUED:    6277363  USEFUL:     414744  USELESS:     159835
L1D AVERAGE MISS LATENCY: 334.542 cycles
L1I TOTAL     ACCESS:   16906125  HIT:   15654477  MISS:    1251648
L1I LOAD      ACCESS:   12113829  HIT:   12063383  MISS:      50446
L1I RFO       ACCESS:          0  HIT:          0  MISS:          0
L1I PREFETCH  ACCESS:    4792296  HIT:    3591094  MISS:    1201202
L1I WRITEBACK ACCESS:          0  HIT:          0  MISS:          0
L1I PREFETCH  REQUESTED:    5370499  ISSUED:    5135910  USEFUL:     690094  USELESS:     511153
L1I AVERAGE MISS LATENCY: 64.2595 cycles
L2C TOTAL     ACCESS:   10708861  HIT:    5363476  MISS:    5345385
L2C LOAD      ACCESS:     280502  HIT:     119893  MISS:     160609
L2C RFO       ACCESS:    3599038  HIT:      13023  MISS:    3586015
L2C PREFETCH  ACCESS:    3103818  HIT:    1505224  MISS:    1598594
L2C WRITEBACK ACCESS:    3725503  HIT:    3725336  MISS:        167
L2C PREFETCH  REQUESTED:    3128425  ISSUED:    3128312  USEFUL:      26565  USELESS:    1572273
L2C AVERAGE MISS LATENCY: 345.696 cycles
LLC TOTAL     ACCESS:   10022389  HIT:    6116912  MISS:    3905477
LLC LOAD      ACCESS:     160458  HIT:      94250  MISS:      66208
LLC RFO       ACCESS:    3586015  HIT:     583139  MISS:    3002876
LLC PREFETCH  ACCESS:    2610699  HIT:    1774306  MISS:     836393
LLC WRITEBACK ACCESS:    3665217  HIT:    3665217  MISS:          0
LLC PREFETCH  REQUESTED:          0  ISSUED:          0  USEFUL:     144602  USELESS:     687417
LLC AVERAGE MISS LATENCY: 457.208 cycles
Major fault: 0 Minor fault: 4154
CPU 0 L1D next line prefetcher final stats

DRAM Statistics
 CHANNEL 0
 RQ ROW_BUFFER_HIT:    1035721  ROW_BUFFER_MISS:    2867664
 DBUS_CONGESTED:    5565033
 WQ ROW_BUFFER_HIT:     940659  ROW_BUFFER_MISS:    2239454  FULL:          0

 AVG_CONGESTED_CYCLE: 6

CPU 0 Branch Prediction Accuracy: 99.5987% MPKI: 0.82446 Average ROB Occupancy at Mispredict: 136.1

Branch types
NOT_BRANCH: 39726805 79.4536%
BRANCH_DIRECT_JUMP: 391438 0.782876%
BRANCH_INDIRECT: 62076 0.124152%
BRANCH_CONDITIONAL: 8421541 16.8431%
BRANCH_DIRECT_CALL: 672962 1.34592%
BRANCH_INDIRECT_CALL: 26115 0.05223%
BRANCH_RETURN: 699082 1.39816%
BRANCH_OTHER: 0 0%

