Initialize SIGNATURE TABLE
ST_SET: 1
ST_WAY: 256
ST_TAG_BIT: 16
ST_TAG_MASK: ffff

Initialize PATTERN TABLE
PT_SET: 512
PT_WAY: 4
SIG_DELTA_BIT: 7
C_SIG_BIT: 4
C_DELTA_BIT: 4

Initialize PREFETCH FILTER
FILTER_SET: 1024

*** ChampSim Multicore Out-of-Order Simulator ***

Warmup Instructions: 50000000
Simulation Instructions: 50000000
Number of CPUs: 1
LLC sets: 2048
LLC ways: 16
Off-chip DRAM Size: 4096 MB Channels: 1 Width: 64-bit Data Rate: 3200 MT/s

CPU 0 runs /home/tapatil/CSE240C/SA1/ChampSim-master/ipc1_public/client_004.champsimtrace.xz
CPU 0 EPI prefetcher
CPU 0 L1D next line prefetcher
Heartbeat CPU 0 instructions: 10000000 cycles: 3592993 heartbeat IPC: 2.7832 cumulative IPC: 2.7832 (Simulation time: 0 hr 0 min 33 sec) 
Heartbeat CPU 0 instructions: 20000003 cycles: 7057450 heartbeat IPC: 2.88646 cumulative IPC: 2.83389 (Simulation time: 0 hr 1 min 2 sec) 
Heartbeat CPU 0 instructions: 30000000 cycles: 10648429 heartbeat IPC: 2.78475 cumulative IPC: 2.81732 (Simulation time: 0 hr 1 min 33 sec) 
Heartbeat CPU 0 instructions: 40000003 cycles: 14329312 heartbeat IPC: 2.71674 cumulative IPC: 2.79148 (Simulation time: 0 hr 2 min 4 sec) 
Heartbeat CPU 0 instructions: 50000001 cycles: 17847723 heartbeat IPC: 2.84219 cumulative IPC: 2.80148 (Simulation time: 0 hr 2 min 36 sec) 

Warmup complete CPU 0 instructions: 50000001 cycles: 17847723 (Simulation time: 0 hr 2 min 36 sec) 

Heartbeat CPU 0 instructions: 60000002 cycles: 25665991 heartbeat IPC: 1.27906 cumulative IPC: 1.27906 (Simulation time: 0 hr 3 min 3 sec) 
Heartbeat CPU 0 instructions: 70000001 cycles: 33466963 heartbeat IPC: 1.28189 cumulative IPC: 1.28047 (Simulation time: 0 hr 3 min 33 sec) 
Heartbeat CPU 0 instructions: 80000002 cycles: 42040288 heartbeat IPC: 1.16641 cumulative IPC: 1.24005 (Simulation time: 0 hr 4 min 1 sec) 
Heartbeat CPU 0 instructions: 90000000 cycles: 50112920 heartbeat IPC: 1.23875 cumulative IPC: 1.23973 (Simulation time: 0 hr 4 min 29 sec) 
Heartbeat CPU 0 instructions: 100000001 cycles: 57956407 heartbeat IPC: 1.27494 cumulative IPC: 1.24661 (Simulation time: 0 hr 4 min 58 sec) 
Finished CPU 0 instructions: 50000000 cycles: 40108684 cumulative IPC: 1.24661 (Simulation time: 0 hr 4 min 58 sec) 

ChampSim completed all CPUs

Region of Interest Statistics

CPU 0 cumulative IPC: 1.24661 instructions: 50000000 cycles: 40108684
L1D TOTAL     ACCESS:   21901328  HIT:   21012430  MISS:     888898
L1D LOAD      ACCESS:    8693151  HIT:    8296957  MISS:     396194
L1D RFO       ACCESS:    4808932  HIT:    4687532  MISS:     121400
L1D PREFETCH  ACCESS:    8399245  HIT:    8027941  MISS:     371304
L1D WRITEBACK ACCESS:          0  HIT:          0  MISS:          0
L1D PREFETCH  REQUESTED:    8732749  ISSUED:    8572795  USEFUL:     132826  USELESS:     238486
L1D AVERAGE MISS LATENCY: 29.6348 cycles
L1I TOTAL     ACCESS:   30576735  HIT:   29672595  MISS:     904140
L1I LOAD      ACCESS:    9381866  HIT:    9302832  MISS:      79034
L1I RFO       ACCESS:          0  HIT:          0  MISS:          0
L1I PREFETCH  ACCESS:   21194869  HIT:   20369763  MISS:     825106
L1I WRITEBACK ACCESS:          0  HIT:          0  MISS:          0
L1I PREFETCH  REQUESTED:   25891671  ISSUED:   25891671  USEFUL:     538715  USELESS:     286422
L1I AVERAGE MISS LATENCY: 24.2373 cycles
L2C TOTAL     ACCESS:    2658606  HIT:    2367140  MISS:     291466
L2C LOAD      ACCESS:     437796  HIT:     368306  MISS:      69490
L2C RFO       ACCESS:     117397  HIT:      45061  MISS:      72336
L2C PREFETCH  ACCESS:    1881407  HIT:    1732471  MISS:     148936
L2C WRITEBACK ACCESS:     222006  HIT:     221302  MISS:        704
L2C PREFETCH  REQUESTED:    1802026  ISSUED:    1801333  USEFUL:      22530  USELESS:     125335
L2C AVERAGE MISS LATENCY: 80.8879 cycles
LLC TOTAL     ACCESS:     722678  HIT:     593049  MISS:     129629
LLC LOAD      ACCESS:      69472  HIT:      46632  MISS:      22840
LLC RFO       ACCESS:      72335  HIT:      41521  MISS:      30814
LLC PREFETCH  ACCESS:     479877  HIT:     404183  MISS:      75694
LLC WRITEBACK ACCESS:     100994  HIT:     100713  MISS:        281
LLC PREFETCH  REQUESTED:          0  ISSUED:          0  USEFUL:      24564  USELESS:      50769
LLC AVERAGE MISS LATENCY: 178.105 cycles
Major fault: 0 Minor fault: 3978
CPU 0 L1I EPI prefetcher final stats
CPU 0 L1D next line prefetcher final stats

DRAM Statistics
 CHANNEL 0
 RQ ROW_BUFFER_HIT:      32719  ROW_BUFFER_MISS:      96615
 DBUS_CONGESTED:      60737
 WQ ROW_BUFFER_HIT:       9075  ROW_BUFFER_MISS:      34996  FULL:          0

 AVG_CONGESTED_CYCLE: 6

CPU 0 Branch Prediction Accuracy: 94.1242% MPKI: 11.6089 Average ROB Occupancy at Mispredict: 57.389

Branch types
NOT_BRANCH: 40121057 80.2421%
BRANCH_DIRECT_JUMP: 644555 1.28911%
BRANCH_INDIRECT: 201946 0.403892%
BRANCH_CONDITIONAL: 7003556 14.0071%
BRANCH_DIRECT_CALL: 564820 1.12964%
BRANCH_INDIRECT_CALL: 445012 0.890024%
BRANCH_RETURN: 1018716 2.03743%
BRANCH_OTHER: 0 0%

