Initialize SIGNATURE TABLE
ST_SET: 1
ST_WAY: 256
ST_TAG_BIT: 16
ST_TAG_MASK: ffff

Initialize PATTERN TABLE
PT_SET: 512
PT_WAY: 4
SIG_DELTA_BIT: 7
C_SIG_BIT: 4
C_DELTA_BIT: 4

Initialize PREFETCH FILTER
FILTER_SET: 1024

*** ChampSim Multicore Out-of-Order Simulator ***

Warmup Instructions: 50000000
Simulation Instructions: 50000000
Number of CPUs: 1
LLC sets: 2048
LLC ways: 16
Off-chip DRAM Size: 4096 MB Channels: 1 Width: 64-bit Data Rate: 3200 MT/s

CPU 0 runs /home/tapatil/CSE240C/SA1/ChampSim-master/ipc1_public/client_004.champsimtrace.xz
CPU 0 EPI prefetcher
CPU 0 L1D next line prefetcher
Heartbeat CPU 0 instructions: 10000000 cycles: 3592648 heartbeat IPC: 2.78346 cumulative IPC: 2.78346 (Simulation time: 0 hr 0 min 32 sec) 
Heartbeat CPU 0 instructions: 20000003 cycles: 7057049 heartbeat IPC: 2.8865 cumulative IPC: 2.83405 (Simulation time: 0 hr 1 min 2 sec) 
Heartbeat CPU 0 instructions: 30000000 cycles: 10647983 heartbeat IPC: 2.78479 cumulative IPC: 2.81744 (Simulation time: 0 hr 1 min 33 sec) 
Heartbeat CPU 0 instructions: 40000003 cycles: 14328774 heartbeat IPC: 2.71681 cumulative IPC: 2.79159 (Simulation time: 0 hr 2 min 6 sec) 
Heartbeat CPU 0 instructions: 50000001 cycles: 17846920 heartbeat IPC: 2.84241 cumulative IPC: 2.8016 (Simulation time: 0 hr 2 min 38 sec) 

Warmup complete CPU 0 instructions: 50000001 cycles: 17846920 (Simulation time: 0 hr 2 min 38 sec) 

Heartbeat CPU 0 instructions: 60000002 cycles: 25698435 heartbeat IPC: 1.27364 cumulative IPC: 1.27364 (Simulation time: 0 hr 3 min 8 sec) 
Heartbeat CPU 0 instructions: 70000001 cycles: 33540182 heartbeat IPC: 1.27523 cumulative IPC: 1.27443 (Simulation time: 0 hr 3 min 40 sec) 
Heartbeat CPU 0 instructions: 80000002 cycles: 42222332 heartbeat IPC: 1.15179 cumulative IPC: 1.23075 (Simulation time: 0 hr 4 min 10 sec) 
Heartbeat CPU 0 instructions: 90000000 cycles: 50345442 heartbeat IPC: 1.23106 cumulative IPC: 1.23083 (Simulation time: 0 hr 4 min 41 sec) 
Heartbeat CPU 0 instructions: 100000001 cycles: 58245739 heartbeat IPC: 1.26578 cumulative IPC: 1.23766 (Simulation time: 0 hr 5 min 10 sec) 
Finished CPU 0 instructions: 50000000 cycles: 40398819 cumulative IPC: 1.23766 (Simulation time: 0 hr 5 min 10 sec) 

ChampSim completed all CPUs

Region of Interest Statistics

CPU 0 cumulative IPC: 1.23766 instructions: 50000000 cycles: 40398819
L1D TOTAL     ACCESS:   21909907  HIT:   21020948  MISS:     888959
L1D LOAD      ACCESS:    8696334  HIT:    8300094  MISS:     396240
L1D RFO       ACCESS:    4810539  HIT:    4689170  MISS:     121369
L1D PREFETCH  ACCESS:    8403034  HIT:    8031684  MISS:     371350
L1D WRITEBACK ACCESS:          0  HIT:          0  MISS:          0
L1D PREFETCH  REQUESTED:    8735865  ISSUED:    8576293  USEFUL:     132847  USELESS:     238511
L1D AVERAGE MISS LATENCY: 29.5754 cycles
L1I TOTAL     ACCESS:   29653804  HIT:   28774857  MISS:     878947
L1I LOAD      ACCESS:    9380140  HIT:    9290499  MISS:      89641
L1I RFO       ACCESS:          0  HIT:          0  MISS:          0
L1I PREFETCH  ACCESS:   20273664  HIT:   19484358  MISS:     789306
L1I WRITEBACK ACCESS:          0  HIT:          0  MISS:          0
L1I PREFETCH  REQUESTED:   24319894  ISSUED:   24319894  USEFUL:     519677  USELESS:     269644
L1I AVERAGE MISS LATENCY: 24.0275 cycles
L2C TOTAL     ACCESS:    2630369  HIT:    2339135  MISS:     291234
L2C LOAD      ACCESS:     447637  HIT:     372918  MISS:      74719
L2C RFO       ACCESS:     117369  HIT:      45604  MISS:      71765
L2C PREFETCH  ACCESS:    1843364  HIT:    1699323  MISS:     144041
L2C WRITEBACK ACCESS:     221999  HIT:     221290  MISS:        709
L2C PREFETCH  REQUESTED:    1788431  ISSUED:    1787843  USEFUL:      23037  USELESS:     119959
L2C AVERAGE MISS LATENCY: 79.0863 cycles
LLC TOTAL     ACCESS:     727728  HIT:     597928  MISS:     129800
LLC LOAD      ACCESS:      74688  HIT:      50053  MISS:      24635
LLC RFO       ACCESS:      71765  HIT:      41413  MISS:      30352
LLC PREFETCH  ACCESS:     480943  HIT:     406392  MISS:      74551
LLC WRITEBACK ACCESS:     100332  HIT:     100070  MISS:        262
LLC PREFETCH  REQUESTED:          0  ISSUED:          0  USEFUL:      26791  USELESS:      48523
LLC AVERAGE MISS LATENCY: 175.212 cycles
Major fault: 0 Minor fault: 3976
CPU 0 L1I EPI prefetcher final stats
CPU 0 L1D next line prefetcher final stats

DRAM Statistics
 CHANNEL 0
 RQ ROW_BUFFER_HIT:      32384  ROW_BUFFER_MISS:      97141
 DBUS_CONGESTED:      59504
 WQ ROW_BUFFER_HIT:       9250  ROW_BUFFER_MISS:      34611  FULL:          0

 AVG_CONGESTED_CYCLE: 6

CPU 0 Branch Prediction Accuracy: 94.1242% MPKI: 11.6089 Average ROB Occupancy at Mispredict: 56.9851

Branch types
NOT_BRANCH: 40121083 80.2422%
BRANCH_DIRECT_JUMP: 644555 1.28911%
BRANCH_INDIRECT: 201946 0.403892%
BRANCH_CONDITIONAL: 7003557 14.0071%
BRANCH_DIRECT_CALL: 564821 1.12964%
BRANCH_INDIRECT_CALL: 445012 0.890024%
BRANCH_RETURN: 1018716 2.03743%
BRANCH_OTHER: 0 0%

