Initialize SIGNATURE TABLE
ST_SET: 1
ST_WAY: 256
ST_TAG_BIT: 16
ST_TAG_MASK: ffff

Initialize PATTERN TABLE
PT_SET: 512
PT_WAY: 4
SIG_DELTA_BIT: 7
C_SIG_BIT: 4
C_DELTA_BIT: 4

Initialize PREFETCH FILTER
FILTER_SET: 1024

*** ChampSim Multicore Out-of-Order Simulator ***

Warmup Instructions: 50000000
Simulation Instructions: 50000000
Number of CPUs: 1
LLC sets: 2048
LLC ways: 16
Off-chip DRAM Size: 4096 MB Channels: 1 Width: 64-bit Data Rate: 3200 MT/s

CPU 0 runs /home/tapatil/CSE240C/SA1/ChampSim-master/ipc1_public/client_007.champsimtrace.xz
CPU 0 EPI prefetcher
CPU 0 L1D next line prefetcher
Heartbeat CPU 0 instructions: 10000001 cycles: 3641788 heartbeat IPC: 2.7459 cumulative IPC: 2.7459 (Simulation time: 0 hr 0 min 30 sec) 
Heartbeat CPU 0 instructions: 20000003 cycles: 7033219 heartbeat IPC: 2.94861 cumulative IPC: 2.84365 (Simulation time: 0 hr 0 min 57 sec) 
Heartbeat CPU 0 instructions: 30000000 cycles: 10904248 heartbeat IPC: 2.58329 cumulative IPC: 2.75122 (Simulation time: 0 hr 1 min 29 sec) 
Heartbeat CPU 0 instructions: 40000003 cycles: 15064204 heartbeat IPC: 2.40387 cumulative IPC: 2.6553 (Simulation time: 0 hr 2 min 1 sec) 
Heartbeat CPU 0 instructions: 50000002 cycles: 18468833 heartbeat IPC: 2.93718 cumulative IPC: 2.70726 (Simulation time: 0 hr 2 min 30 sec) 

Warmup complete CPU 0 instructions: 50000002 cycles: 18468833 (Simulation time: 0 hr 2 min 30 sec) 

Heartbeat CPU 0 instructions: 60000003 cycles: 25340016 heartbeat IPC: 1.45535 cumulative IPC: 1.45535 (Simulation time: 0 hr 3 min 2 sec) 
Heartbeat CPU 0 instructions: 70000003 cycles: 34176844 heartbeat IPC: 1.13163 cumulative IPC: 1.27324 (Simulation time: 0 hr 3 min 37 sec) 
Heartbeat CPU 0 instructions: 80000002 cycles: 39479082 heartbeat IPC: 1.886 cumulative IPC: 1.42787 (Simulation time: 0 hr 4 min 0 sec) 
Heartbeat CPU 0 instructions: 90000002 cycles: 47067904 heartbeat IPC: 1.31773 cumulative IPC: 1.39865 (Simulation time: 0 hr 4 min 32 sec) 
Heartbeat CPU 0 instructions: 100000002 cycles: 56000440 heartbeat IPC: 1.1195 cumulative IPC: 1.33221 (Simulation time: 0 hr 5 min 0 sec) 
Finished CPU 0 instructions: 50000000 cycles: 37531607 cumulative IPC: 1.33221 (Simulation time: 0 hr 5 min 0 sec) 

ChampSim completed all CPUs

Region of Interest Statistics

CPU 0 cumulative IPC: 1.33221 instructions: 50000000 cycles: 37531607
L1D TOTAL     ACCESS:   21192351  HIT:   20023299  MISS:    1169052
L1D LOAD      ACCESS:    8366891  HIT:    7827211  MISS:     539680
L1D RFO       ACCESS:    4868439  HIT:    4777370  MISS:      91069
L1D PREFETCH  ACCESS:    7957021  HIT:    7418718  MISS:     538303
L1D WRITEBACK ACCESS:          0  HIT:          0  MISS:          0
L1D PREFETCH  REQUESTED:    8419105  ISSUED:    8175019  USEFUL:     157872  USELESS:     380446
L1D AVERAGE MISS LATENCY: 34.442 cycles
L1I TOTAL     ACCESS:   27690005  HIT:   26675215  MISS:    1014790
L1I LOAD      ACCESS:    9124019  HIT:    9112467  MISS:      11552
L1I RFO       ACCESS:          0  HIT:          0  MISS:          0
L1I PREFETCH  ACCESS:   18565986  HIT:   17562748  MISS:    1003238
L1I WRITEBACK ACCESS:          0  HIT:          0  MISS:          0
L1I PREFETCH  REQUESTED:   21611940  ISSUED:   21611940  USEFUL:     835565  USELESS:     167662
L1I AVERAGE MISS LATENCY: 16.8915 cycles
L2C TOTAL     ACCESS:    3123292  HIT:    2916733  MISS:     206559
L2C LOAD      ACCESS:     520326  HIT:     451159  MISS:      69167
L2C RFO       ACCESS:      89518  HIT:      48027  MISS:      41491
L2C PREFETCH  ACCESS:    2185755  HIT:    2089965  MISS:      95790
L2C WRITEBACK ACCESS:     327693  HIT:     327582  MISS:        111
L2C PREFETCH  REQUESTED:    2501738  ISSUED:    2495124  USEFUL:       8982  USELESS:      86963
L2C AVERAGE MISS LATENCY: 125.632 cycles
LLC TOTAL     ACCESS:     972562  HIT:     804262  MISS:     168300
LLC LOAD      ACCESS:      69081  HIT:      34395  MISS:      34686
LLC RFO       ACCESS:      41491  HIT:       7112  MISS:      34379
LLC PREFETCH  ACCESS:     787594  HIT:     688660  MISS:      98934
LLC WRITEBACK ACCESS:      74396  HIT:      74095  MISS:        301
LLC PREFETCH  REQUESTED:          0  ISSUED:          0  USEFUL:      18789  USELESS:      80902
LLC AVERAGE MISS LATENCY: 183.046 cycles
Major fault: 0 Minor fault: 4406
CPU 0 L1I EPI prefetcher final stats
CPU 0 L1D next line prefetcher final stats

DRAM Statistics
 CHANNEL 0
 RQ ROW_BUFFER_HIT:      35533  ROW_BUFFER_MISS:     132456
 DBUS_CONGESTED:      94451
 WQ ROW_BUFFER_HIT:      12879  ROW_BUFFER_MISS:      45510  FULL:          0

 AVG_CONGESTED_CYCLE: 5

CPU 0 Branch Prediction Accuracy: 98.8607% MPKI: 1.8623 Average ROB Occupancy at Mispredict: 113.969

Branch types
NOT_BRANCH: 41826773 83.6535%
BRANCH_DIRECT_JUMP: 735330 1.47066%
BRANCH_INDIRECT: 269194 0.538388%
BRANCH_CONDITIONAL: 5957947 11.9159%
BRANCH_DIRECT_CALL: 368758 0.737516%
BRANCH_INDIRECT_CALL: 226975 0.45395%
BRANCH_RETURN: 614696 1.22939%
BRANCH_OTHER: 0 0%

