Initialize SIGNATURE TABLE
ST_SET: 1
ST_WAY: 256
ST_TAG_BIT: 16
ST_TAG_MASK: ffff

Initialize PATTERN TABLE
PT_SET: 512
PT_WAY: 4
SIG_DELTA_BIT: 7
C_SIG_BIT: 4
C_DELTA_BIT: 4

Initialize PREFETCH FILTER
FILTER_SET: 1024

*** ChampSim Multicore Out-of-Order Simulator ***

Warmup Instructions: 50000000
Simulation Instructions: 50000000
Number of CPUs: 1
LLC sets: 2048
LLC ways: 16
Off-chip DRAM Size: 4096 MB Channels: 1 Width: 64-bit Data Rate: 3200 MT/s

CPU 0 runs /home/tapatil/CSE240C/SA1/ChampSim-master/ipc1_public/client_006.champsimtrace.xz
CPU 0 EPI prefetcher
CPU 0 L1D next line prefetcher
Heartbeat CPU 0 instructions: 10000003 cycles: 4267496 heartbeat IPC: 2.3433 cumulative IPC: 2.3433 (Simulation time: 0 hr 0 min 32 sec) 
Heartbeat CPU 0 instructions: 20000000 cycles: 8307573 heartbeat IPC: 2.4752 cumulative IPC: 2.40744 (Simulation time: 0 hr 1 min 3 sec) 
Heartbeat CPU 0 instructions: 30000003 cycles: 11371102 heartbeat IPC: 3.26421 cumulative IPC: 2.63827 (Simulation time: 0 hr 1 min 29 sec) 
Heartbeat CPU 0 instructions: 40000000 cycles: 14715666 heartbeat IPC: 2.98993 cumulative IPC: 2.71819 (Simulation time: 0 hr 1 min 57 sec) 
Heartbeat CPU 0 instructions: 50000003 cycles: 18820537 heartbeat IPC: 2.43613 cumulative IPC: 2.65667 (Simulation time: 0 hr 2 min 29 sec) 

Warmup complete CPU 0 instructions: 50000003 cycles: 18820537 (Simulation time: 0 hr 2 min 29 sec) 

Heartbeat CPU 0 instructions: 60000001 cycles: 26637638 heartbeat IPC: 1.27925 cumulative IPC: 1.27925 (Simulation time: 0 hr 2 min 56 sec) 
Heartbeat CPU 0 instructions: 70000003 cycles: 36376972 heartbeat IPC: 1.02676 cumulative IPC: 1.13918 (Simulation time: 0 hr 3 min 24 sec) 
Heartbeat CPU 0 instructions: 80000002 cycles: 44642853 heartbeat IPC: 1.20979 cumulative IPC: 1.16179 (Simulation time: 0 hr 3 min 52 sec) 
Heartbeat CPU 0 instructions: 90000003 cycles: 52479014 heartbeat IPC: 1.27614 cumulative IPC: 1.18841 (Simulation time: 0 hr 4 min 18 sec) 
Heartbeat CPU 0 instructions: 100000001 cycles: 60588067 heartbeat IPC: 1.23319 cumulative IPC: 1.1971 (Simulation time: 0 hr 4 min 45 sec) 
Finished CPU 0 instructions: 50000002 cycles: 41767531 cumulative IPC: 1.1971 (Simulation time: 0 hr 4 min 45 sec) 

ChampSim completed all CPUs

Region of Interest Statistics

CPU 0 cumulative IPC: 1.1971 instructions: 50000002 cycles: 41767531
L1D TOTAL     ACCESS:   16594336  HIT:   15867163  MISS:     727173
L1D LOAD      ACCESS:    6366214  HIT:    5960136  MISS:     406078
L1D RFO       ACCESS:    4332785  HIT:    4290165  MISS:      42620
L1D PREFETCH  ACCESS:    5895337  HIT:    5616862  MISS:     278475
L1D WRITEBACK ACCESS:          0  HIT:          0  MISS:          0
L1D PREFETCH  REQUESTED:    6407360  ISSUED:    6226437  USEFUL:     117467  USELESS:     160882
L1D AVERAGE MISS LATENCY: 82.5344 cycles
L1I TOTAL     ACCESS:   29589252  HIT:   28795887  MISS:     793365
L1I LOAD      ACCESS:    8460794  HIT:    8450747  MISS:      10047
L1I RFO       ACCESS:          0  HIT:          0  MISS:          0
L1I PREFETCH  ACCESS:   21128458  HIT:   20345140  MISS:     783318
L1I WRITEBACK ACCESS:          0  HIT:          0  MISS:          0
L1I PREFETCH  REQUESTED:   25638046  ISSUED:   25638046  USEFUL:     685273  USELESS:      98089
L1I AVERAGE MISS LATENCY: 24.9841 cycles
L2C TOTAL     ACCESS:    2157491  HIT:    1610953  MISS:     546538
L2C LOAD      ACCESS:     345587  HIT:     110434  MISS:     235153
L2C RFO       ACCESS:      42366  HIT:      12437  MISS:      29929
L2C PREFETCH  ACCESS:    1593554  HIT:    1312844  MISS:     280710
L2C WRITEBACK ACCESS:     175984  HIT:     175238  MISS:        746
L2C PREFETCH  REQUESTED:    2617505  ISSUED:    2594736  USEFUL:      10142  USELESS:     271607
L2C AVERAGE MISS LATENCY: 119.241 cycles
LLC TOTAL     ACCESS:    1267034  HIT:     875506  MISS:     391528
LLC LOAD      ACCESS:     225371  HIT:     132682  MISS:      92689
LLC RFO       ACCESS:      29929  HIT:       5102  MISS:      24827
LLC PREFETCH  ACCESS:     877734  HIT:     604327  MISS:     273407
LLC WRITEBACK ACCESS:     134000  HIT:     133395  MISS:        605
LLC PREFETCH  REQUESTED:          0  ISSUED:          0  USEFUL:      41430  USELESS:     235522
LLC AVERAGE MISS LATENCY: 203.09 cycles
Major fault: 0 Minor fault: 10527
CPU 0 L1I EPI prefetcher final stats
CPU 0 L1D next line prefetcher final stats

DRAM Statistics
 CHANNEL 0
 RQ ROW_BUFFER_HIT:     103052  ROW_BUFFER_MISS:     287847
 DBUS_CONGESTED:     230416
 WQ ROW_BUFFER_HIT:      21194  ROW_BUFFER_MISS:      93791  FULL:          0

 AVG_CONGESTED_CYCLE: 5

CPU 0 Branch Prediction Accuracy: 98.1683% MPKI: 3.13642 Average ROB Occupancy at Mispredict: 87.4299

Branch types
NOT_BRANCH: 41438057 82.8761%
BRANCH_DIRECT_JUMP: 413829 0.827658%
BRANCH_INDIRECT: 47058 0.094116%
BRANCH_CONDITIONAL: 6843835 13.6877%
BRANCH_DIRECT_CALL: 536885 1.07377%
BRANCH_INDIRECT_CALL: 90642 0.181284%
BRANCH_RETURN: 629329 1.25866%
BRANCH_OTHER: 0 0%

