Initialize SIGNATURE TABLE
ST_SET: 1
ST_WAY: 256
ST_TAG_BIT: 16
ST_TAG_MASK: ffff

Initialize PATTERN TABLE
PT_SET: 512
PT_WAY: 4
SIG_DELTA_BIT: 7
C_SIG_BIT: 4
C_DELTA_BIT: 4

Initialize PREFETCH FILTER
FILTER_SET: 1024

*** ChampSim Multicore Out-of-Order Simulator ***

Warmup Instructions: 50000000
Simulation Instructions: 50000000
Number of CPUs: 1
LLC sets: 2048
LLC ways: 16
Off-chip DRAM Size: 4096 MB Channels: 1 Width: 64-bit Data Rate: 3200 MT/s

CPU 0 runs /home/tapatil/CSE240C/SA1/ChampSim-master/ipc1_public/client_007.champsimtrace.xz
CPU 0 EPI prefetcher
CPU 0 L1D next line prefetcher
Heartbeat CPU 0 instructions: 10000001 cycles: 3641517 heartbeat IPC: 2.74611 cumulative IPC: 2.74611 (Simulation time: 0 hr 0 min 32 sec) 
Heartbeat CPU 0 instructions: 20000003 cycles: 7032188 heartbeat IPC: 2.94927 cumulative IPC: 2.84407 (Simulation time: 0 hr 1 min 1 sec) 
Heartbeat CPU 0 instructions: 30000000 cycles: 10902671 heartbeat IPC: 2.58366 cumulative IPC: 2.75162 (Simulation time: 0 hr 1 min 35 sec) 
Heartbeat CPU 0 instructions: 40000003 cycles: 15062766 heartbeat IPC: 2.40379 cumulative IPC: 2.65556 (Simulation time: 0 hr 2 min 8 sec) 
Heartbeat CPU 0 instructions: 50000002 cycles: 18467194 heartbeat IPC: 2.93735 cumulative IPC: 2.7075 (Simulation time: 0 hr 2 min 39 sec) 

Warmup complete CPU 0 instructions: 50000002 cycles: 18467194 (Simulation time: 0 hr 2 min 39 sec) 

Heartbeat CPU 0 instructions: 60000003 cycles: 25344721 heartbeat IPC: 1.45401 cumulative IPC: 1.45401 (Simulation time: 0 hr 3 min 13 sec) 
Heartbeat CPU 0 instructions: 70000003 cycles: 34187963 heartbeat IPC: 1.13081 cumulative IPC: 1.2722 (Simulation time: 0 hr 3 min 51 sec) 
Heartbeat CPU 0 instructions: 80000002 cycles: 39493911 heartbeat IPC: 1.88468 cumulative IPC: 1.42676 (Simulation time: 0 hr 4 min 16 sec) 
Heartbeat CPU 0 instructions: 90000002 cycles: 47088295 heartbeat IPC: 1.31676 cumulative IPC: 1.39757 (Simulation time: 0 hr 4 min 51 sec) 
Heartbeat CPU 0 instructions: 100000002 cycles: 56015060 heartbeat IPC: 1.12023 cumulative IPC: 1.33163 (Simulation time: 0 hr 5 min 23 sec) 
Finished CPU 0 instructions: 50000000 cycles: 37547866 cumulative IPC: 1.33163 (Simulation time: 0 hr 5 min 23 sec) 

ChampSim completed all CPUs

Region of Interest Statistics

CPU 0 cumulative IPC: 1.33163 instructions: 50000000 cycles: 37547866
L1D TOTAL     ACCESS:   21188857  HIT:   20019783  MISS:    1169074
L1D LOAD      ACCESS:    8364918  HIT:    7825830  MISS:     539088
L1D RFO       ACCESS:    4868585  HIT:    4777535  MISS:      91050
L1D PREFETCH  ACCESS:    7955354  HIT:    7416418  MISS:     538936
L1D WRITEBACK ACCESS:          0  HIT:          0  MISS:          0
L1D PREFETCH  REQUESTED:    8417718  ISSUED:    8173632  USEFUL:     158453  USELESS:     380498
L1D AVERAGE MISS LATENCY: 34.4861 cycles
L1I TOTAL     ACCESS:   26215419  HIT:   25203425  MISS:    1011994
L1I LOAD      ACCESS:    9122777  HIT:    9108808  MISS:      13969
L1I RFO       ACCESS:          0  HIT:          0  MISS:          0
L1I PREFETCH  ACCESS:   17092642  HIT:   16094617  MISS:     998025
L1I WRITEBACK ACCESS:          0  HIT:          0  MISS:          0
L1I PREFETCH  REQUESTED:   19765104  ISSUED:   19765104  USEFUL:     838483  USELESS:     159542
L1I AVERAGE MISS LATENCY: 16.8331 cycles
L2C TOTAL     ACCESS:    3127033  HIT:    2920107  MISS:     206926
L2C LOAD      ACCESS:     521412  HIT:     452020  MISS:      69392
L2C RFO       ACCESS:      89500  HIT:      47844  MISS:      41656
L2C PREFETCH  ACCESS:    2188457  HIT:    2092694  MISS:      95763
L2C WRITEBACK ACCESS:     327664  HIT:     327549  MISS:        115
L2C PREFETCH  REQUESTED:    2543969  ISSUED:    2538290  USEFUL:       9088  USELESS:      86770
L2C AVERAGE MISS LATENCY: 125.572 cycles
LLC TOTAL     ACCESS:     975530  HIT:     807095  MISS:     168435
LLC LOAD      ACCESS:      69295  HIT:      34491  MISS:      34804
LLC RFO       ACCESS:      41655  HIT:       7238  MISS:      34417
LLC PREFETCH  ACCESS:     789989  HIT:     691086  MISS:      98903
LLC WRITEBACK ACCESS:      74591  HIT:      74280  MISS:        311
LLC PREFETCH  REQUESTED:          0  ISSUED:          0  USEFUL:      18680  USELESS:      81141
LLC AVERAGE MISS LATENCY: 183.716 cycles
Major fault: 0 Minor fault: 4405
CPU 0 L1I EPI prefetcher final stats
CPU 0 L1D next line prefetcher final stats

DRAM Statistics
 CHANNEL 0
 RQ ROW_BUFFER_HIT:      35492  ROW_BUFFER_MISS:     132623
 DBUS_CONGESTED:      94351
 WQ ROW_BUFFER_HIT:      12901  ROW_BUFFER_MISS:      45591  FULL:          0

 AVG_CONGESTED_CYCLE: 5

CPU 0 Branch Prediction Accuracy: 98.8607% MPKI: 1.8623 Average ROB Occupancy at Mispredict: 113.921

Branch types
NOT_BRANCH: 41826773 83.6535%
BRANCH_DIRECT_JUMP: 735330 1.47066%
BRANCH_INDIRECT: 269194 0.538388%
BRANCH_CONDITIONAL: 5957947 11.9159%
BRANCH_DIRECT_CALL: 368758 0.737516%
BRANCH_INDIRECT_CALL: 226975 0.45395%
BRANCH_RETURN: 614696 1.22939%
BRANCH_OTHER: 0 0%

