Initialize SIGNATURE TABLE
ST_SET: 1
ST_WAY: 256
ST_TAG_BIT: 16
ST_TAG_MASK: ffff

Initialize PATTERN TABLE
PT_SET: 512
PT_WAY: 4
SIG_DELTA_BIT: 7
C_SIG_BIT: 4
C_DELTA_BIT: 4

Initialize PREFETCH FILTER
FILTER_SET: 1024

*** ChampSim Multicore Out-of-Order Simulator ***

Warmup Instructions: 50000000
Simulation Instructions: 50000000
Number of CPUs: 1
LLC sets: 2048
LLC ways: 16
Off-chip DRAM Size: 4096 MB Channels: 1 Width: 64-bit Data Rate: 3200 MT/s

CPU 0 runs /home/tapatil/CSE240C/SA1/ChampSim-master/ipc1_public/client_001.champsimtrace.xz
CPU 0 EPI prefetcher
CPU 0 L1D next line prefetcher
Heartbeat CPU 0 instructions: 10000003 cycles: 3410478 heartbeat IPC: 2.93214 cumulative IPC: 2.93214 (Simulation time: 0 hr 0 min 29 sec) 
Heartbeat CPU 0 instructions: 20000001 cycles: 7118846 heartbeat IPC: 2.6966 cumulative IPC: 2.80944 (Simulation time: 0 hr 1 min 0 sec) 
Heartbeat CPU 0 instructions: 30000001 cycles: 10481960 heartbeat IPC: 2.97343 cumulative IPC: 2.86206 (Simulation time: 0 hr 1 min 28 sec) 
Heartbeat CPU 0 instructions: 40000003 cycles: 14352128 heartbeat IPC: 2.58387 cumulative IPC: 2.78704 (Simulation time: 0 hr 1 min 58 sec) 
Heartbeat CPU 0 instructions: 50000003 cycles: 17649389 heartbeat IPC: 3.03282 cumulative IPC: 2.83296 (Simulation time: 0 hr 2 min 27 sec) 

Warmup complete CPU 0 instructions: 50000003 cycles: 17649389 (Simulation time: 0 hr 2 min 27 sec) 

Heartbeat CPU 0 instructions: 60000000 cycles: 26657967 heartbeat IPC: 1.11005 cumulative IPC: 1.11005 (Simulation time: 0 hr 2 min 57 sec) 
Heartbeat CPU 0 instructions: 70000000 cycles: 32968782 heartbeat IPC: 1.58458 cumulative IPC: 1.30553 (Simulation time: 0 hr 3 min 26 sec) 
Heartbeat CPU 0 instructions: 80000002 cycles: 42291163 heartbeat IPC: 1.07269 cumulative IPC: 1.21744 (Simulation time: 0 hr 4 min 1 sec) 
Heartbeat CPU 0 instructions: 90000000 cycles: 48460785 heartbeat IPC: 1.62084 cumulative IPC: 1.29822 (Simulation time: 0 hr 4 min 29 sec) 
Heartbeat CPU 0 instructions: 100000002 cycles: 57312637 heartbeat IPC: 1.12971 cumulative IPC: 1.26061 (Simulation time: 0 hr 4 min 57 sec) 
Finished CPU 0 instructions: 50000003 cycles: 39663249 cumulative IPC: 1.26061 (Simulation time: 0 hr 4 min 57 sec) 

ChampSim completed all CPUs

Region of Interest Statistics

CPU 0 cumulative IPC: 1.26061 instructions: 50000003 cycles: 39663249
L1D TOTAL     ACCESS:   21236416  HIT:   20399959  MISS:     836457
L1D LOAD      ACCESS:    8819371  HIT:    8424516  MISS:     394855
L1D RFO       ACCESS:    4041029  HIT:    3982005  MISS:      59024
L1D PREFETCH  ACCESS:    8376016  HIT:    7993438  MISS:     382578
L1D WRITEBACK ACCESS:          0  HIT:          0  MISS:          0
L1D PREFETCH  REQUESTED:    8864626  ISSUED:    8554916  USEFUL:     129545  USELESS:     253007
L1D AVERAGE MISS LATENCY: 47.5176 cycles
L1I TOTAL     ACCESS:   33974518  HIT:   33543227  MISS:     431291
L1I LOAD      ACCESS:    8922884  HIT:    8913157  MISS:       9727
L1I RFO       ACCESS:          0  HIT:          0  MISS:          0
L1I PREFETCH  ACCESS:   25051634  HIT:   24630070  MISS:     421564
L1I WRITEBACK ACCESS:          0  HIT:          0  MISS:          0
L1I PREFETCH  REQUESTED:   31853930  ISSUED:   31853930  USEFUL:     307654  USELESS:     113859
L1I AVERAGE MISS LATENCY: 22.2629 cycles
L2C TOTAL     ACCESS:    1940187  HIT:    1633628  MISS:     306559
L2C LOAD      ACCESS:     381838  HIT:     269501  MISS:     112337
L2C RFO       ACCESS:      58261  HIT:      21551  MISS:      36710
L2C PREFETCH  ACCESS:    1310494  HIT:    1153198  MISS:     157296
L2C WRITEBACK ACCESS:     189594  HIT:     189378  MISS:        216
L2C PREFETCH  REQUESTED:    1776861  ISSUED:    1768559  USEFUL:      14237  USELESS:     141946
L2C AVERAGE MISS LATENCY: 105.751 cycles
LLC TOTAL     ACCESS:     809067  HIT:     611933  MISS:     197134
LLC LOAD      ACCESS:     112005  HIT:      70561  MISS:      41444
LLC RFO       ACCESS:      36710  HIT:       8736  MISS:      27974
LLC PREFETCH  ACCESS:     554304  HIT:     427262  MISS:     127042
LLC WRITEBACK ACCESS:     106048  HIT:     105374  MISS:        674
LLC PREFETCH  REQUESTED:          0  ISSUED:          0  USEFUL:      28213  USELESS:     100384
LLC AVERAGE MISS LATENCY: 190.075 cycles
Major fault: 0 Minor fault: 3446
CPU 0 L1I EPI prefetcher final stats
CPU 0 L1D next line prefetcher final stats

DRAM Statistics
 CHANNEL 0
 RQ ROW_BUFFER_HIT:      48459  ROW_BUFFER_MISS:     147990
 DBUS_CONGESTED:     117896
 WQ ROW_BUFFER_HIT:      15653  ROW_BUFFER_MISS:      65027  FULL:          0

 AVG_CONGESTED_CYCLE: 5

CPU 0 Branch Prediction Accuracy: 97.9037% MPKI: 3.63418 Average ROB Occupancy at Mispredict: 87.1494

Branch types
NOT_BRANCH: 41331383 82.6628%
BRANCH_DIRECT_JUMP: 455615 0.91123%
BRANCH_INDIRECT: 20390 0.04078%
BRANCH_CONDITIONAL: 6745374 13.4907%
BRANCH_DIRECT_CALL: 494532 0.989064%
BRANCH_INDIRECT_CALL: 228815 0.45763%
BRANCH_RETURN: 723560 1.44712%
BRANCH_OTHER: 0 0%

