Initialize SIGNATURE TABLE
ST_SET: 1
ST_WAY: 256
ST_TAG_BIT: 16
ST_TAG_MASK: ffff

Initialize PATTERN TABLE
PT_SET: 512
PT_WAY: 4
SIG_DELTA_BIT: 7
C_SIG_BIT: 4
C_DELTA_BIT: 4

Initialize PREFETCH FILTER
FILTER_SET: 1024

*** ChampSim Multicore Out-of-Order Simulator ***

Warmup Instructions: 50000000
Simulation Instructions: 50000000
Number of CPUs: 1
LLC sets: 2048
LLC ways: 16
Off-chip DRAM Size: 4096 MB Channels: 1 Width: 64-bit Data Rate: 3200 MT/s

CPU 0 runs /home/tapatil/CSE240C/SA1/ChampSim-master/ipc1_public/client_006.champsimtrace.xz
CPU 0 EPI prefetcher
CPU 0 L1D next line prefetcher
Heartbeat CPU 0 instructions: 10000003 cycles: 4267483 heartbeat IPC: 2.3433 cumulative IPC: 2.3433 (Simulation time: 0 hr 0 min 31 sec) 
Heartbeat CPU 0 instructions: 20000000 cycles: 8307617 heartbeat IPC: 2.47516 cumulative IPC: 2.40743 (Simulation time: 0 hr 1 min 2 sec) 
Heartbeat CPU 0 instructions: 30000003 cycles: 11371099 heartbeat IPC: 3.26426 cumulative IPC: 2.63827 (Simulation time: 0 hr 1 min 26 sec) 
Heartbeat CPU 0 instructions: 40000000 cycles: 14715811 heartbeat IPC: 2.98979 cumulative IPC: 2.71816 (Simulation time: 0 hr 1 min 55 sec) 
Heartbeat CPU 0 instructions: 50000003 cycles: 18820733 heartbeat IPC: 2.4361 cumulative IPC: 2.65664 (Simulation time: 0 hr 2 min 26 sec) 

Warmup complete CPU 0 instructions: 50000003 cycles: 18820733 (Simulation time: 0 hr 2 min 26 sec) 

Heartbeat CPU 0 instructions: 60000001 cycles: 26633079 heartbeat IPC: 1.28003 cumulative IPC: 1.28003 (Simulation time: 0 hr 2 min 53 sec) 
Heartbeat CPU 0 instructions: 70000003 cycles: 36363903 heartbeat IPC: 1.02766 cumulative IPC: 1.14004 (Simulation time: 0 hr 3 min 21 sec) 
Heartbeat CPU 0 instructions: 80000002 cycles: 44609049 heartbeat IPC: 1.21283 cumulative IPC: 1.16332 (Simulation time: 0 hr 3 min 48 sec) 
Heartbeat CPU 0 instructions: 90000003 cycles: 52429301 heartbeat IPC: 1.27873 cumulative IPC: 1.19017 (Simulation time: 0 hr 4 min 14 sec) 
Heartbeat CPU 0 instructions: 100000001 cycles: 60544499 heartbeat IPC: 1.23226 cumulative IPC: 1.19836 (Simulation time: 0 hr 4 min 41 sec) 
Finished CPU 0 instructions: 50000002 cycles: 41723767 cumulative IPC: 1.19836 (Simulation time: 0 hr 4 min 41 sec) 

ChampSim completed all CPUs

Region of Interest Statistics

CPU 0 cumulative IPC: 1.19836 instructions: 50000002 cycles: 41723767
L1D TOTAL     ACCESS:   16597161  HIT:   15869946  MISS:     727215
L1D LOAD      ACCESS:    6367370  HIT:    5961361  MISS:     406009
L1D RFO       ACCESS:    4332660  HIT:    4290050  MISS:      42610
L1D PREFETCH  ACCESS:    5897131  HIT:    5618535  MISS:     278596
L1D WRITEBACK ACCESS:          0  HIT:          0  MISS:          0
L1D PREFETCH  REQUESTED:    6408392  ISSUED:    6227429  USEFUL:     117544  USELESS:     160927
L1D AVERAGE MISS LATENCY: 82.0971 cycles
L1I TOTAL     ACCESS:   28730037  HIT:   27944250  MISS:     785787
L1I LOAD      ACCESS:    8459049  HIT:    8449336  MISS:       9713
L1I RFO       ACCESS:          0  HIT:          0  MISS:          0
L1I PREFETCH  ACCESS:   20270988  HIT:   19494914  MISS:     776074
L1I WRITEBACK ACCESS:          0  HIT:          0  MISS:          0
L1I PREFETCH  REQUESTED:   24069279  ISSUED:   24069279  USEFUL:     692185  USELESS:      83943
L1I AVERAGE MISS LATENCY: 25.1591 cycles
L2C TOTAL     ACCESS:    2137375  HIT:    1591217  MISS:     546158
L2C LOAD      ACCESS:     345930  HIT:     110324  MISS:     235606
L2C RFO       ACCESS:      42362  HIT:      12464  MISS:      29898
L2C PREFETCH  ACCESS:    1573091  HIT:    1293164  MISS:     279927
L2C WRITEBACK ACCESS:     175992  HIT:     175265  MISS:        727
L2C PREFETCH  REQUESTED:    2646989  ISSUED:    2622958  USEFUL:      10149  USELESS:     270888
L2C AVERAGE MISS LATENCY: 118.265 cycles
LLC TOTAL     ACCESS:    1265807  HIT:     877832  MISS:     387975
LLC LOAD      ACCESS:     225992  HIT:     134504  MISS:      91488
LLC RFO       ACCESS:      29896  HIT:       5107  MISS:      24789
LLC PREFETCH  ACCESS:     875947  HIT:     604832  MISS:     271115
LLC WRITEBACK ACCESS:     133972  HIT:     133389  MISS:        583
LLC PREFETCH  REQUESTED:          0  ISSUED:          0  USEFUL:      41697  USELESS:     232704
LLC AVERAGE MISS LATENCY: 203.288 cycles
Major fault: 0 Minor fault: 10527
CPU 0 L1I EPI prefetcher final stats
CPU 0 L1D next line prefetcher final stats

DRAM Statistics
 CHANNEL 0
 RQ ROW_BUFFER_HIT:     102069  ROW_BUFFER_MISS:     285315
 DBUS_CONGESTED:     227916
 WQ ROW_BUFFER_HIT:      21290  ROW_BUFFER_MISS:      94012  FULL:          0

 AVG_CONGESTED_CYCLE: 5

CPU 0 Branch Prediction Accuracy: 98.1683% MPKI: 3.13642 Average ROB Occupancy at Mispredict: 87.6101

Branch types
NOT_BRANCH: 41438057 82.8761%
BRANCH_DIRECT_JUMP: 413829 0.827658%
BRANCH_INDIRECT: 47058 0.094116%
BRANCH_CONDITIONAL: 6843835 13.6877%
BRANCH_DIRECT_CALL: 536885 1.07377%
BRANCH_INDIRECT_CALL: 90642 0.181284%
BRANCH_RETURN: 629329 1.25866%
BRANCH_OTHER: 0 0%

