Initialize SIGNATURE TABLE
ST_SET: 1
ST_WAY: 256
ST_TAG_BIT: 16
ST_TAG_MASK: ffff

Initialize PATTERN TABLE
PT_SET: 512
PT_WAY: 4
SIG_DELTA_BIT: 7
C_SIG_BIT: 4
C_DELTA_BIT: 4

Initialize PREFETCH FILTER
FILTER_SET: 1024

*** ChampSim Multicore Out-of-Order Simulator ***

Warmup Instructions: 50000000
Simulation Instructions: 50000000
Number of CPUs: 1
LLC sets: 2048
LLC ways: 16
Off-chip DRAM Size: 4096 MB Channels: 1 Width: 64-bit Data Rate: 3200 MT/s

CPU 0 runs /home/tapatil/CSE240C/SA1/ChampSim-master/ipc1_public/client_003.champsimtrace.xz
CPU 0 EPI prefetcher
CPU 0 L1D next line prefetcher
Heartbeat CPU 0 instructions: 10000000 cycles: 3478663 heartbeat IPC: 2.87467 cumulative IPC: 2.87467 (Simulation time: 0 hr 0 min 35 sec) 
Heartbeat CPU 0 instructions: 20000002 cycles: 6933501 heartbeat IPC: 2.89449 cumulative IPC: 2.88455 (Simulation time: 0 hr 1 min 11 sec) 
Heartbeat CPU 0 instructions: 30000003 cycles: 10494621 heartbeat IPC: 2.80811 cumulative IPC: 2.85861 (Simulation time: 0 hr 1 min 47 sec) 
Heartbeat CPU 0 instructions: 40000001 cycles: 14111263 heartbeat IPC: 2.765 cumulative IPC: 2.83462 (Simulation time: 0 hr 2 min 23 sec) 
Heartbeat CPU 0 instructions: 50000003 cycles: 17656566 heartbeat IPC: 2.82063 cumulative IPC: 2.83181 (Simulation time: 0 hr 3 min 0 sec) 

Warmup complete CPU 0 instructions: 50000003 cycles: 17656566 (Simulation time: 0 hr 3 min 0 sec) 

Heartbeat CPU 0 instructions: 60000002 cycles: 23855787 heartbeat IPC: 1.61311 cumulative IPC: 1.61311 (Simulation time: 0 hr 3 min 36 sec) 
Heartbeat CPU 0 instructions: 70000001 cycles: 29879503 heartbeat IPC: 1.6601 cumulative IPC: 1.63627 (Simulation time: 0 hr 4 min 12 sec) 
Heartbeat CPU 0 instructions: 80000001 cycles: 36628838 heartbeat IPC: 1.48163 cumulative IPC: 1.58125 (Simulation time: 0 hr 4 min 48 sec) 
Heartbeat CPU 0 instructions: 90000000 cycles: 45611042 heartbeat IPC: 1.11331 cumulative IPC: 1.4309 (Simulation time: 0 hr 5 min 11 sec) 
Heartbeat CPU 0 instructions: 100000003 cycles: 56466215 heartbeat IPC: 0.92122 cumulative IPC: 1.28834 (Simulation time: 0 hr 5 min 36 sec) 
Finished CPU 0 instructions: 50000000 cycles: 38809649 cumulative IPC: 1.28834 (Simulation time: 0 hr 5 min 36 sec) 

ChampSim completed all CPUs

Region of Interest Statistics

CPU 0 cumulative IPC: 1.28834 instructions: 50000000 cycles: 38809649
L1D TOTAL     ACCESS:   17603104  HIT:   17107177  MISS:     495927
L1D LOAD      ACCESS:    6022803  HIT:    5895992  MISS:     126811
L1D RFO       ACCESS:    5946972  HIT:    5712553  MISS:     234419
L1D PREFETCH  ACCESS:    5633329  HIT:    5498632  MISS:     134697
L1D WRITEBACK ACCESS:          0  HIT:          0  MISS:          0
L1D PREFETCH  REQUESTED:    6064083  ISSUED:    5923347  USEFUL:      66840  USELESS:      67906
L1D AVERAGE MISS LATENCY: 123.132 cycles
L1I TOTAL     ACCESS:   29321219  HIT:   28419885  MISS:     901334
L1I LOAD      ACCESS:    9446212  HIT:    9384286  MISS:      61926
L1I RFO       ACCESS:          0  HIT:          0  MISS:          0
L1I PREFETCH  ACCESS:   19875007  HIT:   19035599  MISS:     839408
L1I WRITEBACK ACCESS:          0  HIT:          0  MISS:          0
L1I PREFETCH  REQUESTED:   25517923  ISSUED:   25517923  USEFUL:     520912  USELESS:     318552
L1I AVERAGE MISS LATENCY: 20.3254 cycles
L2C TOTAL     ACCESS:    2089814  HIT:    1686164  MISS:     403650
L2C LOAD      ACCESS:     136689  HIT:      95252  MISS:      41437
L2C RFO       ACCESS:     232373  HIT:      24960  MISS:     207413
L2C PREFETCH  ACCESS:    1451452  HIT:    1297813  MISS:     153639
L2C WRITEBACK ACCESS:     269300  HIT:     268139  MISS:       1161
L2C PREFETCH  REQUESTED:    1516253  ISSUED:    1515176  USEFUL:      11578  USELESS:     142057
L2C AVERAGE MISS LATENCY: 166.816 cycles
LLC TOTAL     ACCESS:    1025736  HIT:     738849  MISS:     286887
LLC LOAD      ACCESS:      41331  HIT:      29044  MISS:      12287
LLC RFO       ACCESS:     207404  HIT:      35323  MISS:     172081
LLC PREFETCH  ACCESS:     552154  HIT:     450022  MISS:     102132
LLC WRITEBACK ACCESS:     224847  HIT:     224460  MISS:        387
LLC PREFETCH  REQUESTED:          0  ISSUED:          0  USEFUL:      11133  USELESS:      91139
LLC AVERAGE MISS LATENCY: 234.392 cycles
Major fault: 0 Minor fault: 5045
CPU 0 L1I EPI prefetcher final stats
CPU 0 L1D next line prefetcher final stats

DRAM Statistics
 CHANNEL 0
 RQ ROW_BUFFER_HIT:     101136  ROW_BUFFER_MISS:     185358
 DBUS_CONGESTED:     259487
 WQ ROW_BUFFER_HIT:      58737  ROW_BUFFER_MISS:     120283  FULL:          0

 AVG_CONGESTED_CYCLE: 6

CPU 0 Branch Prediction Accuracy: 98.6631% MPKI: 2.66884 Average ROB Occupancy at Mispredict: 80.8869

Branch types
NOT_BRANCH: 40018772 80.0375%
BRANCH_DIRECT_JUMP: 370861 0.741722%
BRANCH_INDIRECT: 83252 0.166504%
BRANCH_CONDITIONAL: 7877436 15.7549%
BRANCH_DIRECT_CALL: 722315 1.44463%
BRANCH_INDIRECT_CALL: 101901 0.203802%
BRANCH_RETURN: 825355 1.65071%
BRANCH_OTHER: 0 0%

