Initialize SIGNATURE TABLE
ST_SET: 1
ST_WAY: 256
ST_TAG_BIT: 16
ST_TAG_MASK: ffff

Initialize PATTERN TABLE
PT_SET: 512
PT_WAY: 4
SIG_DELTA_BIT: 7
C_SIG_BIT: 4
C_DELTA_BIT: 4

Initialize PREFETCH FILTER
FILTER_SET: 1024

*** ChampSim Multicore Out-of-Order Simulator ***

Warmup Instructions: 50000000
Simulation Instructions: 50000000
Number of CPUs: 1
LLC sets: 2048
LLC ways: 16
Off-chip DRAM Size: 4096 MB Channels: 1 Width: 64-bit Data Rate: 3200 MT/s

CPU 0 runs /home/tapatil/CSE240C/SA1/ChampSim-master/ipc1_public/client_005.champsimtrace.xz
CPU 0 EPI prefetcher
CPU 0 L1D next line prefetcher
Heartbeat CPU 0 instructions: 10000001 cycles: 3292176 heartbeat IPC: 3.0375 cumulative IPC: 3.0375 (Simulation time: 0 hr 0 min 35 sec) 
Heartbeat CPU 0 instructions: 20000002 cycles: 6698315 heartbeat IPC: 2.93588 cumulative IPC: 2.98583 (Simulation time: 0 hr 1 min 12 sec) 
Heartbeat CPU 0 instructions: 30000001 cycles: 10391734 heartbeat IPC: 2.70752 cumulative IPC: 2.88691 (Simulation time: 0 hr 1 min 53 sec) 
Heartbeat CPU 0 instructions: 40000000 cycles: 14069730 heartbeat IPC: 2.71887 cumulative IPC: 2.84298 (Simulation time: 0 hr 2 min 34 sec) 
Heartbeat CPU 0 instructions: 50000001 cycles: 17344309 heartbeat IPC: 3.05383 cumulative IPC: 2.88279 (Simulation time: 0 hr 3 min 11 sec) 

Warmup complete CPU 0 instructions: 50000001 cycles: 17344309 (Simulation time: 0 hr 3 min 11 sec) 

Heartbeat CPU 0 instructions: 60000002 cycles: 24756545 heartbeat IPC: 1.34912 cumulative IPC: 1.34912 (Simulation time: 0 hr 3 min 47 sec) 
Heartbeat CPU 0 instructions: 70000003 cycles: 31901240 heartbeat IPC: 1.39964 cumulative IPC: 1.37392 (Simulation time: 0 hr 4 min 24 sec) 
Heartbeat CPU 0 instructions: 80000001 cycles: 38711549 heartbeat IPC: 1.46836 cumulative IPC: 1.40402 (Simulation time: 0 hr 5 min 6 sec) 
Heartbeat CPU 0 instructions: 90000002 cycles: 48138771 heartbeat IPC: 1.06076 cumulative IPC: 1.29893 (Simulation time: 0 hr 5 min 48 sec) 
Heartbeat CPU 0 instructions: 100000002 cycles: 55544096 heartbeat IPC: 1.35038 cumulative IPC: 1.30891 (Simulation time: 0 hr 6 min 23 sec) 
Finished CPU 0 instructions: 50000001 cycles: 38199787 cumulative IPC: 1.30891 (Simulation time: 0 hr 6 min 23 sec) 

ChampSim completed all CPUs

Region of Interest Statistics

CPU 0 cumulative IPC: 1.30891 instructions: 50000001 cycles: 38199787
L1D TOTAL     ACCESS:   19581506  HIT:   19045829  MISS:     535677
L1D LOAD      ACCESS:    6619144  HIT:    6447223  MISS:     171921
L1D RFO       ACCESS:    6792727  HIT:    6608197  MISS:     184530
L1D PREFETCH  ACCESS:    6169635  HIT:    5990409  MISS:     179226
L1D WRITEBACK ACCESS:          0  HIT:          0  MISS:          0
L1D PREFETCH  REQUESTED:    6642373  ISSUED:    6273882  USEFUL:      59174  USELESS:     119941
L1D AVERAGE MISS LATENCY: 93.3431 cycles
L1I TOTAL     ACCESS:   38908902  HIT:   37517025  MISS:    1391877
L1I LOAD      ACCESS:    9310206  HIT:    9227242  MISS:      82964
L1I RFO       ACCESS:          0  HIT:          0  MISS:          0
L1I PREFETCH  ACCESS:   29598696  HIT:   28289783  MISS:    1308913
L1I WRITEBACK ACCESS:          0  HIT:          0  MISS:          0
L1I PREFETCH  REQUESTED:   37972521  ISSUED:   37972521  USEFUL:     771619  USELESS:     537245
L1I AVERAGE MISS LATENCY: 19.9727 cycles
L2C TOTAL     ACCESS:    2854209  HIT:    2455171  MISS:     399038
L2C LOAD      ACCESS:     220368  HIT:     138959  MISS:      81409
L2C RFO       ACCESS:     180964  HIT:      31769  MISS:     149195
L2C PREFETCH  ACCESS:    2199836  HIT:    2032838  MISS:     166998
L2C WRITEBACK ACCESS:     253041  HIT:     251605  MISS:       1436
L2C PREFETCH  REQUESTED:    2064290  ISSUED:    2063028  USEFUL:      14074  USELESS:     150571
L2C AVERAGE MISS LATENCY: 127.014 cycles
LLC TOTAL     ACCESS:    1001627  HIT:     698452  MISS:     303175
LLC LOAD      ACCESS:      81394  HIT:      41125  MISS:      40269
LLC RFO       ACCESS:     149193  HIT:      18878  MISS:     130315
LLC PREFETCH  ACCESS:     571763  HIT:     440077  MISS:     131686
LLC WRITEBACK ACCESS:     199277  HIT:     198372  MISS:        905
LLC PREFETCH  REQUESTED:          0  ISSUED:          0  USEFUL:      27607  USELESS:      98553
LLC AVERAGE MISS LATENCY: 173.361 cycles
Major fault: 0 Minor fault: 6087
CPU 0 L1I EPI prefetcher final stats
CPU 0 L1D next line prefetcher final stats

DRAM Statistics
 CHANNEL 0
 RQ ROW_BUFFER_HIT:      98428  ROW_BUFFER_MISS:     203833
 DBUS_CONGESTED:     243879
 WQ ROW_BUFFER_HIT:      51613  ROW_BUFFER_MISS:     131795  FULL:          0

 AVG_CONGESTED_CYCLE: 6

CPU 0 Branch Prediction Accuracy: 97.8666% MPKI: 3.9013 Average ROB Occupancy at Mispredict: 92.3592

Branch types
NOT_BRANCH: 40856330 81.7127%
BRANCH_DIRECT_JUMP: 484667 0.969334%
BRANCH_INDIRECT: 85086 0.170172%
BRANCH_CONDITIONAL: 6230887 12.4618%
BRANCH_DIRECT_CALL: 1028917 2.05783%
BRANCH_INDIRECT_CALL: 141825 0.28365%
BRANCH_RETURN: 1171986 2.34397%
BRANCH_OTHER: 0 0%

