Initialize SIGNATURE TABLE
ST_SET: 1
ST_WAY: 256
ST_TAG_BIT: 16
ST_TAG_MASK: ffff

Initialize PATTERN TABLE
PT_SET: 512
PT_WAY: 4
SIG_DELTA_BIT: 7
C_SIG_BIT: 4
C_DELTA_BIT: 4

Initialize PREFETCH FILTER
FILTER_SET: 1024

*** ChampSim Multicore Out-of-Order Simulator ***

Warmup Instructions: 50000000
Simulation Instructions: 50000000
Number of CPUs: 1
LLC sets: 2048
LLC ways: 16
Off-chip DRAM Size: 4096 MB Channels: 1 Width: 64-bit Data Rate: 3200 MT/s

CPU 0 runs /home/tapatil/CSE240C/SA1/ChampSim-master/ipc1_public/client_008.champsimtrace.xz
CPU 0 EPI prefetcher
CPU 0 L1D next line prefetcher
Heartbeat CPU 0 instructions: 10000001 cycles: 3751558 heartbeat IPC: 2.66556 cumulative IPC: 2.66556 (Simulation time: 0 hr 0 min 33 sec) 
Heartbeat CPU 0 instructions: 20000001 cycles: 7524296 heartbeat IPC: 2.65059 cumulative IPC: 2.65806 (Simulation time: 0 hr 1 min 6 sec) 
Heartbeat CPU 0 instructions: 30000000 cycles: 11248878 heartbeat IPC: 2.68486 cumulative IPC: 2.66693 (Simulation time: 0 hr 1 min 40 sec) 
Heartbeat CPU 0 instructions: 40000002 cycles: 15040257 heartbeat IPC: 2.63756 cumulative IPC: 2.65953 (Simulation time: 0 hr 2 min 15 sec) 
Heartbeat CPU 0 instructions: 50000003 cycles: 18829135 heartbeat IPC: 2.6393 cumulative IPC: 2.65546 (Simulation time: 0 hr 2 min 51 sec) 

Warmup complete CPU 0 instructions: 50000003 cycles: 18829135 (Simulation time: 0 hr 2 min 51 sec) 

Heartbeat CPU 0 instructions: 60000000 cycles: 26881829 heartbeat IPC: 1.24182 cumulative IPC: 1.24182 (Simulation time: 0 hr 3 min 29 sec) 
Heartbeat CPU 0 instructions: 70000000 cycles: 34737355 heartbeat IPC: 1.27299 cumulative IPC: 1.25721 (Simulation time: 0 hr 4 min 6 sec) 
Heartbeat CPU 0 instructions: 80000001 cycles: 43714168 heartbeat IPC: 1.11398 cumulative IPC: 1.20554 (Simulation time: 0 hr 4 min 37 sec) 
Heartbeat CPU 0 instructions: 90000000 cycles: 51032809 heartbeat IPC: 1.36637 cumulative IPC: 1.24209 (Simulation time: 0 hr 5 min 8 sec) 
Heartbeat CPU 0 instructions: 100000001 cycles: 59070607 heartbeat IPC: 1.24412 cumulative IPC: 1.2425 (Simulation time: 0 hr 5 min 37 sec) 
Finished CPU 0 instructions: 50000002 cycles: 40241473 cumulative IPC: 1.2425 (Simulation time: 0 hr 5 min 37 sec) 

ChampSim completed all CPUs

Region of Interest Statistics

CPU 0 cumulative IPC: 1.2425 instructions: 50000002 cycles: 40241473
L1D TOTAL     ACCESS:   20471248  HIT:   18842796  MISS:    1628452
L1D LOAD      ACCESS:    8056400  HIT:    7256674  MISS:     799726
L1D RFO       ACCESS:    4815295  HIT:    4705741  MISS:     109554
L1D PREFETCH  ACCESS:    7599553  HIT:    6880381  MISS:     719172
L1D WRITEBACK ACCESS:          0  HIT:          0  MISS:          0
L1D PREFETCH  REQUESTED:    8125148  ISSUED:    7956158  USEFUL:     199448  USELESS:     519729
L1D AVERAGE MISS LATENCY: 32.6942 cycles
L1I TOTAL     ACCESS:   33751606  HIT:   32770626  MISS:     980980
L1I LOAD      ACCESS:    9758209  HIT:    9738036  MISS:      20173
L1I RFO       ACCESS:          0  HIT:          0  MISS:          0
L1I PREFETCH  ACCESS:   23993397  HIT:   23032590  MISS:     960807
L1I WRITEBACK ACCESS:          0  HIT:          0  MISS:          0
L1I PREFETCH  REQUESTED:   30232911  ISSUED:   30232911  USEFUL:     739495  USELESS:     221363
L1I AVERAGE MISS LATENCY: 18.4175 cycles
L2C TOTAL     ACCESS:    3662001  HIT:    3208671  MISS:     453330
L2C LOAD      ACCESS:     769447  HIT:     608458  MISS:     160989
L2C RFO       ACCESS:     104321  HIT:      18284  MISS:      86037
L2C PREFETCH  ACCESS:    2606244  HIT:    2400393  MISS:     205851
L2C WRITEBACK ACCESS:     181989  HIT:     181536  MISS:        453
L2C PREFETCH  REQUESTED:    3082746  ISSUED:    3077619  USEFUL:      17936  USELESS:     190176
L2C AVERAGE MISS LATENCY: 77.0245 cycles
LLC TOTAL     ACCESS:    1340292  HIT:    1160714  MISS:     179578
LLC LOAD      ACCESS:     160901  HIT:     140693  MISS:      20208
LLC RFO       ACCESS:      86034  HIT:      16651  MISS:      69383
LLC PREFETCH  ACCESS:     957534  HIT:     867891  MISS:      89643
LLC WRITEBACK ACCESS:     135823  HIT:     135479  MISS:        344
LLC PREFETCH  REQUESTED:          0  ISSUED:          0  USEFUL:      24170  USELESS:      73569
LLC AVERAGE MISS LATENCY: 169.772 cycles
Major fault: 0 Minor fault: 5304
CPU 0 L1I EPI prefetcher final stats
CPU 0 L1D next line prefetcher final stats

DRAM Statistics
 CHANNEL 0
 RQ ROW_BUFFER_HIT:      52372  ROW_BUFFER_MISS:     126841
 DBUS_CONGESTED:      98186
 WQ ROW_BUFFER_HIT:      23690  ROW_BUFFER_MISS:      66345  FULL:          0

 AVG_CONGESTED_CYCLE: 6

CPU 0 Branch Prediction Accuracy: 98.6482% MPKI: 3.1551 Average ROB Occupancy at Mispredict: 98.4686

Branch types
NOT_BRANCH: 38329598 76.6592%
BRANCH_DIRECT_JUMP: 510116 1.02023%
BRANCH_INDIRECT: 225730 0.45146%
BRANCH_CONDITIONAL: 8366762 16.7335%
BRANCH_DIRECT_CALL: 600748 1.2015%
BRANCH_INDIRECT_CALL: 682990 1.36598%
BRANCH_RETURN: 1283974 2.56795%
BRANCH_OTHER: 0 0%

