Initialize SIGNATURE TABLE
ST_SET: 1
ST_WAY: 256
ST_TAG_BIT: 16
ST_TAG_MASK: ffff

Initialize PATTERN TABLE
PT_SET: 512
PT_WAY: 4
SIG_DELTA_BIT: 7
C_SIG_BIT: 4
C_DELTA_BIT: 4

Initialize PREFETCH FILTER
FILTER_SET: 1024

*** ChampSim Multicore Out-of-Order Simulator ***

Warmup Instructions: 50000000
Simulation Instructions: 50000000
Number of CPUs: 1
LLC sets: 2048
LLC ways: 16
Off-chip DRAM Size: 4096 MB Channels: 1 Width: 64-bit Data Rate: 3200 MT/s

CPU 0 runs /home/tapatil/CSE240C/SA1/ChampSim-master/ipc1_public/client_006.champsimtrace.xz
CPU 0 EPI prefetcher
CPU 0 L1D next line prefetcher
Heartbeat CPU 0 instructions: 10000003 cycles: 4267486 heartbeat IPC: 2.3433 cumulative IPC: 2.3433 (Simulation time: 0 hr 0 min 37 sec) 
Heartbeat CPU 0 instructions: 20000000 cycles: 8307509 heartbeat IPC: 2.47523 cumulative IPC: 2.40746 (Simulation time: 0 hr 1 min 13 sec) 
Heartbeat CPU 0 instructions: 30000003 cycles: 11371044 heartbeat IPC: 3.2642 cumulative IPC: 2.63828 (Simulation time: 0 hr 1 min 42 sec) 
Heartbeat CPU 0 instructions: 40000000 cycles: 14716188 heartbeat IPC: 2.98941 cumulative IPC: 2.7181 (Simulation time: 0 hr 2 min 14 sec) 
Heartbeat CPU 0 instructions: 50000003 cycles: 18821132 heartbeat IPC: 2.43609 cumulative IPC: 2.65659 (Simulation time: 0 hr 2 min 48 sec) 

Warmup complete CPU 0 instructions: 50000003 cycles: 18821132 (Simulation time: 0 hr 2 min 48 sec) 

Heartbeat CPU 0 instructions: 60000001 cycles: 26612674 heartbeat IPC: 1.28344 cumulative IPC: 1.28344 (Simulation time: 0 hr 3 min 19 sec) 
Heartbeat CPU 0 instructions: 70000003 cycles: 36349502 heartbeat IPC: 1.02703 cumulative IPC: 1.14101 (Simulation time: 0 hr 3 min 50 sec) 
Heartbeat CPU 0 instructions: 80000002 cycles: 44599428 heartbeat IPC: 1.21213 cumulative IPC: 1.16377 (Simulation time: 0 hr 4 min 21 sec) 
Heartbeat CPU 0 instructions: 90000003 cycles: 52422344 heartbeat IPC: 1.2783 cumulative IPC: 1.19043 (Simulation time: 0 hr 4 min 49 sec) 
Heartbeat CPU 0 instructions: 100000001 cycles: 60518198 heartbeat IPC: 1.2352 cumulative IPC: 1.19913 (Simulation time: 0 hr 5 min 20 sec) 
Finished CPU 0 instructions: 50000002 cycles: 41697067 cumulative IPC: 1.19913 (Simulation time: 0 hr 5 min 20 sec) 

ChampSim completed all CPUs

Region of Interest Statistics

CPU 0 cumulative IPC: 1.19913 instructions: 50000002 cycles: 41697067
L1D TOTAL     ACCESS:   16598363  HIT:   15871193  MISS:     727170
L1D LOAD      ACCESS:    6367977  HIT:    5962029  MISS:     405948
L1D RFO       ACCESS:    4332953  HIT:    4290327  MISS:      42626
L1D PREFETCH  ACCESS:    5897433  HIT:    5618837  MISS:     278596
L1D WRITEBACK ACCESS:          0  HIT:          0  MISS:          0
L1D PREFETCH  REQUESTED:    6408910  ISSUED:    6227887  USEFUL:     117571  USELESS:     160899
L1D AVERAGE MISS LATENCY: 81.9221 cycles
L1I TOTAL     ACCESS:   29437557  HIT:   28652718  MISS:     784839
L1I LOAD      ACCESS:    8457542  HIT:    8448437  MISS:       9105
L1I RFO       ACCESS:          0  HIT:          0  MISS:          0
L1I PREFETCH  ACCESS:   20980015  HIT:   20204281  MISS:     775734
L1I WRITEBACK ACCESS:          0  HIT:          0  MISS:          0
L1I PREFETCH  REQUESTED:   25076804  ISSUED:   25076804  USEFUL:     697306  USELESS:      78494
L1I AVERAGE MISS LATENCY: 25.3135 cycles
L2C TOTAL     ACCESS:    2134316  HIT:    1588014  MISS:     546302
L2C LOAD      ACCESS:     344853  HIT:     110154  MISS:     234699
L2C RFO       ACCESS:      42362  HIT:      12419  MISS:      29943
L2C PREFETCH  ACCESS:    1571117  HIT:    1290221  MISS:     280896
L2C WRITEBACK ACCESS:     175984  HIT:     175220  MISS:        764
L2C PREFETCH  REQUESTED:    2628187  ISSUED:    2606580  USEFUL:      10323  USELESS:     271695
L2C AVERAGE MISS LATENCY: 118.336 cycles
LLC TOTAL     ACCESS:    1262841  HIT:     875988  MISS:     386853
LLC LOAD      ACCESS:     224898  HIT:     133461  MISS:      91437
LLC RFO       ACCESS:      29943  HIT:       5140  MISS:      24803
LLC PREFETCH  ACCESS:     873978  HIT:     603961  MISS:     270017
LLC WRITEBACK ACCESS:     134022  HIT:     133426  MISS:        596
LLC PREFETCH  REQUESTED:          0  ISSUED:          0  USEFUL:      41496  USELESS:     232170
LLC AVERAGE MISS LATENCY: 202.76 cycles
Major fault: 0 Minor fault: 10527
CPU 0 L1I EPI prefetcher final stats
CPU 0 L1D next line prefetcher final stats

DRAM Statistics
 CHANNEL 0
 RQ ROW_BUFFER_HIT:     102580  ROW_BUFFER_MISS:     283662
 DBUS_CONGESTED:     229053
 WQ ROW_BUFFER_HIT:      21062  ROW_BUFFER_MISS:      93751  FULL:          0

 AVG_CONGESTED_CYCLE: 5

CPU 0 Branch Prediction Accuracy: 98.1683% MPKI: 3.13642 Average ROB Occupancy at Mispredict: 87.5318

Branch types
NOT_BRANCH: 41438057 82.8761%
BRANCH_DIRECT_JUMP: 413829 0.827658%
BRANCH_INDIRECT: 47058 0.094116%
BRANCH_CONDITIONAL: 6843835 13.6877%
BRANCH_DIRECT_CALL: 536885 1.07377%
BRANCH_INDIRECT_CALL: 90642 0.181284%
BRANCH_RETURN: 629329 1.25866%
BRANCH_OTHER: 0 0%

