Initialize SIGNATURE TABLE
ST_SET: 1
ST_WAY: 256
ST_TAG_BIT: 16
ST_TAG_MASK: ffff

Initialize PATTERN TABLE
PT_SET: 512
PT_WAY: 4
SIG_DELTA_BIT: 7
C_SIG_BIT: 4
C_DELTA_BIT: 4

Initialize PREFETCH FILTER
FILTER_SET: 1024

*** ChampSim Multicore Out-of-Order Simulator ***

Warmup Instructions: 50000000
Simulation Instructions: 50000000
Number of CPUs: 1
LLC sets: 2048
LLC ways: 16
Off-chip DRAM Size: 4096 MB Channels: 1 Width: 64-bit Data Rate: 3200 MT/s

CPU 0 runs /home/tapatil/CSE240C/SA1/ChampSim-master/ipc1_public/client_003.champsimtrace.xz
CPU 0 EPI prefetcher
CPU 0 L1D next line prefetcher
Heartbeat CPU 0 instructions: 10000000 cycles: 3478990 heartbeat IPC: 2.8744 cumulative IPC: 2.8744 (Simulation time: 0 hr 0 min 37 sec) 
Heartbeat CPU 0 instructions: 20000002 cycles: 6933997 heartbeat IPC: 2.89435 cumulative IPC: 2.88434 (Simulation time: 0 hr 1 min 16 sec) 
Heartbeat CPU 0 instructions: 30000003 cycles: 10495276 heartbeat IPC: 2.80798 cumulative IPC: 2.85843 (Simulation time: 0 hr 1 min 54 sec) 
Heartbeat CPU 0 instructions: 40000001 cycles: 14111910 heartbeat IPC: 2.765 cumulative IPC: 2.83449 (Simulation time: 0 hr 2 min 34 sec) 
Heartbeat CPU 0 instructions: 50000003 cycles: 17657308 heartbeat IPC: 2.82056 cumulative IPC: 2.83169 (Simulation time: 0 hr 3 min 13 sec) 

Warmup complete CPU 0 instructions: 50000003 cycles: 17657308 (Simulation time: 0 hr 3 min 13 sec) 

Heartbeat CPU 0 instructions: 60000002 cycles: 23835367 heartbeat IPC: 1.61863 cumulative IPC: 1.61863 (Simulation time: 0 hr 3 min 53 sec) 
Heartbeat CPU 0 instructions: 70000001 cycles: 29852035 heartbeat IPC: 1.66205 cumulative IPC: 1.64005 (Simulation time: 0 hr 4 min 32 sec) 
Heartbeat CPU 0 instructions: 80000001 cycles: 36577164 heartbeat IPC: 1.48696 cumulative IPC: 1.58564 (Simulation time: 0 hr 5 min 10 sec) 
Heartbeat CPU 0 instructions: 90000000 cycles: 45530502 heartbeat IPC: 1.1169 cumulative IPC: 1.43507 (Simulation time: 0 hr 5 min 35 sec) 
Heartbeat CPU 0 instructions: 100000003 cycles: 56376725 heartbeat IPC: 0.92198 cumulative IPC: 1.29134 (Simulation time: 0 hr 6 min 3 sec) 
Finished CPU 0 instructions: 50000000 cycles: 38719417 cumulative IPC: 1.29134 (Simulation time: 0 hr 6 min 3 sec) 

ChampSim completed all CPUs

Region of Interest Statistics

CPU 0 cumulative IPC: 1.29134 instructions: 50000000 cycles: 38719417
L1D TOTAL     ACCESS:   17597572  HIT:   17101677  MISS:     495895
L1D LOAD      ACCESS:    6020124  HIT:    5893585  MISS:     126539
L1D RFO       ACCESS:    5946201  HIT:    5711775  MISS:     234426
L1D PREFETCH  ACCESS:    5631247  HIT:    5496317  MISS:     134930
L1D WRITEBACK ACCESS:          0  HIT:          0  MISS:          0
L1D PREFETCH  REQUESTED:    6061451  ISSUED:    5920770  USEFUL:      67100  USELESS:      67878
L1D AVERAGE MISS LATENCY: 123.365 cycles
L1I TOTAL     ACCESS:   31808977  HIT:   30874822  MISS:     934155
L1I LOAD      ACCESS:    9446054  HIT:    9391241  MISS:      54813
L1I RFO       ACCESS:          0  HIT:          0  MISS:          0
L1I PREFETCH  ACCESS:   22362923  HIT:   21483581  MISS:     879342
L1I WRITEBACK ACCESS:          0  HIT:          0  MISS:          0
L1I PREFETCH  REQUESTED:   29928332  ISSUED:   29928332  USEFUL:     531129  USELESS:     348289
L1I AVERAGE MISS LATENCY: 20.2576 cycles
L2C TOTAL     ACCESS:    2143254  HIT:    1737575  MISS:     405679
L2C LOAD      ACCESS:     133374  HIT:      92872  MISS:      40502
L2C RFO       ACCESS:     232360  HIT:      24948  MISS:     207412
L2C PREFETCH  ACCESS:    1508227  HIT:    1351724  MISS:     156503
L2C WRITEBACK ACCESS:     269293  HIT:     268031  MISS:       1262
L2C PREFETCH  REQUESTED:    1516732  ISSUED:    1515800  USEFUL:      11298  USELESS:     145382
L2C AVERAGE MISS LATENCY: 166.243 cycles
LLC TOTAL     ACCESS:    1009453  HIT:     722605  MISS:     286848
LLC LOAD      ACCESS:      40409  HIT:      28377  MISS:      12032
LLC RFO       ACCESS:     207404  HIT:      35111  MISS:     172293
LLC PREFETCH  ACCESS:     536717  HIT:     434593  MISS:     102124
LLC WRITEBACK ACCESS:     224923  HIT:     224524  MISS:        399
LLC PREFETCH  REQUESTED:          0  ISSUED:          0  USEFUL:      10741  USELESS:      91784
LLC AVERAGE MISS LATENCY: 234.454 cycles
Major fault: 0 Minor fault: 5045
CPU 0 L1I EPI prefetcher final stats
CPU 0 L1D next line prefetcher final stats

DRAM Statistics
 CHANNEL 0
 RQ ROW_BUFFER_HIT:     101232  ROW_BUFFER_MISS:     185209
 DBUS_CONGESTED:     258626
 WQ ROW_BUFFER_HIT:      58950  ROW_BUFFER_MISS:     120004  FULL:          0

 AVG_CONGESTED_CYCLE: 6

CPU 0 Branch Prediction Accuracy: 98.6631% MPKI: 2.66884 Average ROB Occupancy at Mispredict: 81.623

Branch types
NOT_BRANCH: 40018780 80.0376%
BRANCH_DIRECT_JUMP: 370861 0.741722%
BRANCH_INDIRECT: 83253 0.166506%
BRANCH_CONDITIONAL: 7877436 15.7549%
BRANCH_DIRECT_CALL: 722316 1.44463%
BRANCH_INDIRECT_CALL: 101901 0.203802%
BRANCH_RETURN: 825355 1.65071%
BRANCH_OTHER: 0 0%

