Initialize SIGNATURE TABLE
ST_SET: 1
ST_WAY: 256
ST_TAG_BIT: 16
ST_TAG_MASK: ffff

Initialize PATTERN TABLE
PT_SET: 512
PT_WAY: 4
SIG_DELTA_BIT: 7
C_SIG_BIT: 4
C_DELTA_BIT: 4

Initialize PREFETCH FILTER
FILTER_SET: 1024

*** ChampSim Multicore Out-of-Order Simulator ***

Warmup Instructions: 50000000
Simulation Instructions: 50000000
Number of CPUs: 1
LLC sets: 2048
LLC ways: 16
Off-chip DRAM Size: 4096 MB Channels: 1 Width: 64-bit Data Rate: 3200 MT/s

CPU 0 runs /home/tapatil/CSE240C/SA1/ChampSim-master/ipc1_public/server_021.champsimtrace.xz
CPU 0 EPI prefetcher
CPU 0 L1D next line prefetcher
Heartbeat CPU 0 instructions: 10000000 cycles: 3622533 heartbeat IPC: 2.7605 cumulative IPC: 2.7605 (Simulation time: 0 hr 0 min 35 sec) 
Heartbeat CPU 0 instructions: 20000000 cycles: 7239589 heartbeat IPC: 2.76468 cumulative IPC: 2.76259 (Simulation time: 0 hr 1 min 11 sec) 
Heartbeat CPU 0 instructions: 30000003 cycles: 10887528 heartbeat IPC: 2.74127 cumulative IPC: 2.75545 (Simulation time: 0 hr 1 min 46 sec) 
Heartbeat CPU 0 instructions: 40000001 cycles: 14500721 heartbeat IPC: 2.76763 cumulative IPC: 2.75848 (Simulation time: 0 hr 2 min 22 sec) 
Heartbeat CPU 0 instructions: 50000002 cycles: 18135968 heartbeat IPC: 2.75084 cumulative IPC: 2.75695 (Simulation time: 0 hr 2 min 58 sec) 

Warmup complete CPU 0 instructions: 50000002 cycles: 18135968 (Simulation time: 0 hr 2 min 58 sec) 

Heartbeat CPU 0 instructions: 60000001 cycles: 34963335 heartbeat IPC: 0.59427 cumulative IPC: 0.59427 (Simulation time: 0 hr 3 min 46 sec) 
Heartbeat CPU 0 instructions: 70000002 cycles: 51837205 heartbeat IPC: 0.592632 cumulative IPC: 0.59345 (Simulation time: 0 hr 4 min 35 sec) 
Heartbeat CPU 0 instructions: 80000001 cycles: 68628582 heartbeat IPC: 0.595544 cumulative IPC: 0.594146 (Simulation time: 0 hr 5 min 23 sec) 
Heartbeat CPU 0 instructions: 90000001 cycles: 85637766 heartbeat IPC: 0.587918 cumulative IPC: 0.592577 (Simulation time: 0 hr 6 min 11 sec) 
Heartbeat CPU 0 instructions: 100000002 cycles: 102434807 heartbeat IPC: 0.595343 cumulative IPC: 0.593128 (Simulation time: 0 hr 7 min 0 sec) 
Finished CPU 0 instructions: 50000000 cycles: 84298839 cumulative IPC: 0.593128 (Simulation time: 0 hr 7 min 0 sec) 

ChampSim completed all CPUs

Region of Interest Statistics

CPU 0 cumulative IPC: 0.593128 instructions: 50000000 cycles: 84298839
L1D TOTAL     ACCESS:   18705161  HIT:   16501651  MISS:    2203510
L1D LOAD      ACCESS:    7057578  HIT:    6353549  MISS:     704029
L1D RFO       ACCESS:    5881813  HIT:    4906142  MISS:     975671
L1D PREFETCH  ACCESS:    5765770  HIT:    5241960  MISS:     523810
L1D WRITEBACK ACCESS:          0  HIT:          0  MISS:          0
L1D PREFETCH  REQUESTED:    7100057  ISSUED:    6893482  USEFUL:     202509  USELESS:     321294
L1D AVERAGE MISS LATENCY: 178.508 cycles
L1I TOTAL     ACCESS:   34510994  HIT:   31938926  MISS:    2572068
L1I LOAD      ACCESS:   10118721  HIT:   10099112  MISS:      19609
L1I RFO       ACCESS:          0  HIT:          0  MISS:          0
L1I PREFETCH  ACCESS:   24392273  HIT:   21839814  MISS:    2552459
L1I WRITEBACK ACCESS:          0  HIT:          0  MISS:          0
L1I PREFETCH  REQUESTED:   28525598  ISSUED:   28525598  USEFUL:    2367583  USELESS:     184836
L1I AVERAGE MISS LATENCY: 18.735 cycles
L2C TOTAL     ACCESS:    7074486  HIT:    5212665  MISS:    1861821
L2C LOAD      ACCESS:     486538  HIT:     239877  MISS:     246661
L2C RFO       ACCESS:     974987  HIT:      21686  MISS:     953301
L2C PREFETCH  ACCESS:    4433074  HIT:    3773861  MISS:     659213
L2C WRITEBACK ACCESS:    1179887  HIT:    1177241  MISS:       2646
L2C PREFETCH  REQUESTED:    4132685  ISSUED:    4126820  USEFUL:      20831  USELESS:     638402
L2C AVERAGE MISS LATENCY: 217.337 cycles
LLC TOTAL     ACCESS:    4061141  HIT:    2664219  MISS:    1396922
LLC LOAD      ACCESS:     246486  HIT:     171200  MISS:      75286
LLC RFO       ACCESS:     953241  HIT:     141962  MISS:     811279
LLC PREFETCH  ACCESS:    1749303  HIT:    1241102  MISS:     508201
LLC WRITEBACK ACCESS:    1112111  HIT:    1109955  MISS:       2156
LLC PREFETCH  REQUESTED:          0  ISSUED:          0  USEFUL:      27897  USELESS:     478578
LLC AVERAGE MISS LATENCY: 289.809 cycles
Major fault: 0 Minor fault: 22291
CPU 0 L1I EPI prefetcher final stats
CPU 0 L1D next line prefetcher final stats

DRAM Statistics
 CHANNEL 0
 RQ ROW_BUFFER_HIT:     404180  ROW_BUFFER_MISS:     990273
 DBUS_CONGESTED:    1434497
 WQ ROW_BUFFER_HIT:     267571  ROW_BUFFER_MISS:     630162  FULL:          0

 AVG_CONGESTED_CYCLE: 6

CPU 0 Branch Prediction Accuracy: 99.8303% MPKI: 0.27836 Average ROB Occupancy at Mispredict: 227.879

Branch types
NOT_BRANCH: 41798553 83.5971%
BRANCH_DIRECT_JUMP: 445215 0.89043%
BRANCH_INDIRECT: 50481 0.100962%
BRANCH_CONDITIONAL: 5868247 11.7365%
BRANCH_DIRECT_CALL: 758228 1.51646%
BRANCH_INDIRECT_CALL: 160494 0.320988%
BRANCH_RETURN: 918718 1.83744%
BRANCH_OTHER: 0 0%

