Initialize SIGNATURE TABLE
ST_SET: 1
ST_WAY: 256
ST_TAG_BIT: 16
ST_TAG_MASK: ffff

Initialize PATTERN TABLE
PT_SET: 512
PT_WAY: 4
SIG_DELTA_BIT: 7
C_SIG_BIT: 4
C_DELTA_BIT: 4

Initialize PREFETCH FILTER
FILTER_SET: 1024

*** ChampSim Multicore Out-of-Order Simulator ***

Warmup Instructions: 50000000
Simulation Instructions: 50000000
Number of CPUs: 1
LLC sets: 2048
LLC ways: 16
Off-chip DRAM Size: 4096 MB Channels: 1 Width: 64-bit Data Rate: 3200 MT/s

CPU 0 runs /home/tapatil/CSE240C/SA1/ChampSim-master/ipc1_public/server_003.champsimtrace.xz
CPU 0 EPI prefetcher
CPU 0 L1D next line prefetcher
Heartbeat CPU 0 instructions: 10000002 cycles: 3222223 heartbeat IPC: 3.10345 cumulative IPC: 3.10345 (Simulation time: 0 hr 0 min 33 sec) 
Heartbeat CPU 0 instructions: 20000000 cycles: 6540243 heartbeat IPC: 3.01384 cumulative IPC: 3.05799 (Simulation time: 0 hr 1 min 5 sec) 
Heartbeat CPU 0 instructions: 30000000 cycles: 9749147 heartbeat IPC: 3.11633 cumulative IPC: 3.07719 (Simulation time: 0 hr 1 min 38 sec) 
Heartbeat CPU 0 instructions: 40000001 cycles: 13164809 heartbeat IPC: 2.92769 cumulative IPC: 3.0384 (Simulation time: 0 hr 2 min 13 sec) 
Heartbeat CPU 0 instructions: 50000003 cycles: 16883614 heartbeat IPC: 2.68904 cumulative IPC: 2.96145 (Simulation time: 0 hr 2 min 46 sec) 

Warmup complete CPU 0 instructions: 50000003 cycles: 16883614 (Simulation time: 0 hr 2 min 46 sec) 

Heartbeat CPU 0 instructions: 60000000 cycles: 25609371 heartbeat IPC: 1.14603 cumulative IPC: 1.14603 (Simulation time: 0 hr 3 min 20 sec) 
Heartbeat CPU 0 instructions: 70000003 cycles: 34566714 heartbeat IPC: 1.1164 cumulative IPC: 1.13102 (Simulation time: 0 hr 3 min 49 sec) 
Heartbeat CPU 0 instructions: 80000000 cycles: 44360109 heartbeat IPC: 1.0211 cumulative IPC: 1.09184 (Simulation time: 0 hr 4 min 20 sec) 
Heartbeat CPU 0 instructions: 90000001 cycles: 54236674 heartbeat IPC: 1.0125 cumulative IPC: 1.07086 (Simulation time: 0 hr 4 min 52 sec) 
Heartbeat CPU 0 instructions: 100000001 cycles: 64526993 heartbeat IPC: 0.971787 cumulative IPC: 1.04946 (Simulation time: 0 hr 5 min 21 sec) 
Finished CPU 0 instructions: 50000002 cycles: 47643380 cumulative IPC: 1.04946 (Simulation time: 0 hr 5 min 21 sec) 

ChampSim completed all CPUs

Region of Interest Statistics

CPU 0 cumulative IPC: 1.04946 instructions: 50000002 cycles: 47643380
L1D TOTAL     ACCESS:   19940388  HIT:   18799612  MISS:    1140776
L1D LOAD      ACCESS:    7825853  HIT:    7295255  MISS:     530598
L1D RFO       ACCESS:    4549773  HIT:    4432439  MISS:     117334
L1D PREFETCH  ACCESS:    7564762  HIT:    7071918  MISS:     492844
L1D WRITEBACK ACCESS:          0  HIT:          0  MISS:          0
L1D PREFETCH  REQUESTED:    7885214  ISSUED:    7793704  USEFUL:     154619  USELESS:     338184
L1D AVERAGE MISS LATENCY: 55.1691 cycles
L1I TOTAL     ACCESS:   34004429  HIT:   32644429  MISS:    1360000
L1I LOAD      ACCESS:    9295813  HIT:    9216001  MISS:      79812
L1I RFO       ACCESS:          0  HIT:          0  MISS:          0
L1I PREFETCH  ACCESS:   24708616  HIT:   23428428  MISS:    1280188
L1I WRITEBACK ACCESS:          0  HIT:          0  MISS:          0
L1I PREFETCH  REQUESTED:   31625453  ISSUED:   31625453  USEFUL:     879702  USELESS:     400486
L1I AVERAGE MISS LATENCY: 38.5973 cycles
L2C TOTAL     ACCESS:    3349252  HIT:    2372741  MISS:     976511
L2C LOAD      ACCESS:     556929  HIT:     312956  MISS:     243973
L2C RFO       ACCESS:     114659  HIT:      40361  MISS:      74298
L2C PREFETCH  ACCESS:    2393415  HIT:    1736248  MISS:     657167
L2C WRITEBACK ACCESS:     284249  HIT:     283176  MISS:       1073
L2C PREFETCH  REQUESTED:    2731024  ISSUED:    2727533  USEFUL:      29106  USELESS:     625424
L2C AVERAGE MISS LATENCY: 82.6503 cycles
LLC TOTAL     ACCESS:    1857208  HIT:    1486742  MISS:     370466
LLC LOAD      ACCESS:     243467  HIT:     177755  MISS:      65712
LLC RFO       ACCESS:      74295  HIT:      32344  MISS:      41951
LLC PREFETCH  ACCESS:    1373923  HIT:    1112556  MISS:     261367
LLC WRITEBACK ACCESS:     165523  HIT:     164087  MISS:       1436
LLC PREFETCH  REQUESTED:          0  ISSUED:          0  USEFUL:      31147  USELESS:     218835
LLC AVERAGE MISS LATENCY: 193.217 cycles
Major fault: 0 Minor fault: 7777
CPU 0 L1I EPI prefetcher final stats
CPU 0 L1D next line prefetcher final stats

DRAM Statistics
 CHANNEL 0
 RQ ROW_BUFFER_HIT:      84148  ROW_BUFFER_MISS:     284812
 DBUS_CONGESTED:     189538
 WQ ROW_BUFFER_HIT:      22823  ROW_BUFFER_MISS:      80018  FULL:          0

 AVG_CONGESTED_CYCLE: 5

CPU 0 Branch Prediction Accuracy: 95.439% MPKI: 9.02702 Average ROB Occupancy at Mispredict: 69.7639

Branch types
NOT_BRANCH: 40104088 80.2082%
BRANCH_DIRECT_JUMP: 497928 0.995856%
BRANCH_INDIRECT: 130587 0.261174%
BRANCH_CONDITIONAL: 7219018 14.438%
BRANCH_DIRECT_CALL: 625807 1.25161%
BRANCH_INDIRECT_CALL: 389787 0.779574%
BRANCH_RETURN: 1032747 2.06549%
BRANCH_OTHER: 0 0%

