Initialize SIGNATURE TABLE
ST_SET: 1
ST_WAY: 256
ST_TAG_BIT: 16
ST_TAG_MASK: ffff

Initialize PATTERN TABLE
PT_SET: 512
PT_WAY: 4
SIG_DELTA_BIT: 7
C_SIG_BIT: 4
C_DELTA_BIT: 4

Initialize PREFETCH FILTER
FILTER_SET: 1024

*** ChampSim Multicore Out-of-Order Simulator ***

Warmup Instructions: 50000000
Simulation Instructions: 50000000
Number of CPUs: 1
LLC sets: 2048
LLC ways: 16
Off-chip DRAM Size: 4096 MB Channels: 1 Width: 64-bit Data Rate: 3200 MT/s

CPU 0 runs /home/tapatil/CSE240C/SA1/ChampSim-master/ipc1_public/server_027.champsimtrace.xz
CPU 0 EPI prefetcher
CPU 0 L1D next line prefetcher
Heartbeat CPU 0 instructions: 10000001 cycles: 3525314 heartbeat IPC: 2.83663 cumulative IPC: 2.83663 (Simulation time: 0 hr 0 min 36 sec) 
Heartbeat CPU 0 instructions: 20000001 cycles: 7056136 heartbeat IPC: 2.8322 cumulative IPC: 2.83441 (Simulation time: 0 hr 1 min 12 sec) 
Heartbeat CPU 0 instructions: 30000002 cycles: 10581280 heartbeat IPC: 2.83676 cumulative IPC: 2.8352 (Simulation time: 0 hr 1 min 47 sec) 
Heartbeat CPU 0 instructions: 40000000 cycles: 14111974 heartbeat IPC: 2.8323 cumulative IPC: 2.83447 (Simulation time: 0 hr 2 min 22 sec) 
Heartbeat CPU 0 instructions: 50000001 cycles: 17636327 heartbeat IPC: 2.8374 cumulative IPC: 2.83506 (Simulation time: 0 hr 2 min 58 sec) 

Warmup complete CPU 0 instructions: 50000001 cycles: 17636327 (Simulation time: 0 hr 2 min 58 sec) 

Heartbeat CPU 0 instructions: 60000002 cycles: 24464948 heartbeat IPC: 1.46442 cumulative IPC: 1.46442 (Simulation time: 0 hr 3 min 35 sec) 
Heartbeat CPU 0 instructions: 70000003 cycles: 31242486 heartbeat IPC: 1.47546 cumulative IPC: 1.46992 (Simulation time: 0 hr 4 min 15 sec) 
Heartbeat CPU 0 instructions: 80000002 cycles: 38046387 heartbeat IPC: 1.46974 cumulative IPC: 1.46986 (Simulation time: 0 hr 4 min 53 sec) 
Heartbeat CPU 0 instructions: 90000001 cycles: 44912437 heartbeat IPC: 1.45644 cumulative IPC: 1.46648 (Simulation time: 0 hr 5 min 31 sec) 
Heartbeat CPU 0 instructions: 100000002 cycles: 51662450 heartbeat IPC: 1.48148 cumulative IPC: 1.46946 (Simulation time: 0 hr 6 min 8 sec) 
Finished CPU 0 instructions: 50000001 cycles: 34026123 cumulative IPC: 1.46946 (Simulation time: 0 hr 6 min 8 sec) 

ChampSim completed all CPUs

Region of Interest Statistics

CPU 0 cumulative IPC: 1.46946 instructions: 50000001 cycles: 34026123
L1D TOTAL     ACCESS:   19891375  HIT:   18289749  MISS:    1601626
L1D LOAD      ACCESS:    6944282  HIT:    6252533  MISS:     691749
L1D RFO       ACCESS:    6289017  HIT:    6003162  MISS:     285855
L1D PREFETCH  ACCESS:    6658076  HIT:    6034054  MISS:     624022
L1D WRITEBACK ACCESS:          0  HIT:          0  MISS:          0
L1D PREFETCH  REQUESTED:    6989780  ISSUED:    6862903  USEFUL:     149610  USELESS:     474424
L1D AVERAGE MISS LATENCY: 23.5484 cycles
L1I TOTAL     ACCESS:   29336057  HIT:   25905658  MISS:    3430399
L1I LOAD      ACCESS:    9467391  HIT:    9406975  MISS:      60416
L1I RFO       ACCESS:          0  HIT:          0  MISS:          0
L1I PREFETCH  ACCESS:   19868666  HIT:   16498683  MISS:    3369983
L1I WRITEBACK ACCESS:          0  HIT:          0  MISS:          0
L1I PREFETCH  REQUESTED:   25245217  ISSUED:   25245217  USEFUL:    2751671  USELESS:     618385
L1I AVERAGE MISS LATENCY: 19.324 cycles
L2C TOTAL     ACCESS:    6876423  HIT:    6073292  MISS:     803131
L2C LOAD      ACCESS:     688476  HIT:     561113  MISS:     127363
L2C RFO       ACCESS:     283732  HIT:     197141  MISS:      86591
L2C PREFETCH  ACCESS:    5344905  HIT:    4760008  MISS:     584897
L2C WRITEBACK ACCESS:     559310  HIT:     555030  MISS:       4280
L2C PREFETCH  REQUESTED:    5732030  ISSUED:    5721850  USEFUL:      12738  USELESS:     571406
L2C AVERAGE MISS LATENCY: 38.5969 cycles
LLC TOTAL     ACCESS:    2443053  HIT:    2408178  MISS:      34875
LLC LOAD      ACCESS:     127084  HIT:     123535  MISS:       3549
LLC RFO       ACCESS:      86588  HIT:      72712  MISS:      13876
LLC PREFETCH  ACCESS:    2086318  HIT:    2069057  MISS:      17261
LLC WRITEBACK ACCESS:     143063  HIT:     142874  MISS:        189
LLC PREFETCH  REQUESTED:          0  ISSUED:          0  USEFUL:       1368  USELESS:      15127
LLC AVERAGE MISS LATENCY: 182.069 cycles
Major fault: 0 Minor fault: 2480
CPU 0 L1I EPI prefetcher final stats
CPU 0 L1D next line prefetcher final stats

DRAM Statistics
 CHANNEL 0
 RQ ROW_BUFFER_HIT:      11227  ROW_BUFFER_MISS:      23456
 DBUS_CONGESTED:      23050
 WQ ROW_BUFFER_HIT:       1633  ROW_BUFFER_MISS:      14715  FULL:          0

 AVG_CONGESTED_CYCLE: 6

CPU 0 Branch Prediction Accuracy: 99.8082% MPKI: 0.35064 Average ROB Occupancy at Mispredict: 194.516

Branch types
NOT_BRANCH: 40857507 81.715%
BRANCH_DIRECT_JUMP: 526635 1.05327%
BRANCH_INDIRECT: 205902 0.411804%
BRANCH_CONDITIONAL: 6184049 12.3681%
BRANCH_DIRECT_CALL: 938468 1.87694%
BRANCH_INDIRECT_CALL: 174486 0.348972%
BRANCH_RETURN: 1112959 2.22592%
BRANCH_OTHER: 0 0%

