Initialize SIGNATURE TABLE
ST_SET: 1
ST_WAY: 256
ST_TAG_BIT: 16
ST_TAG_MASK: ffff

Initialize PATTERN TABLE
PT_SET: 512
PT_WAY: 4
SIG_DELTA_BIT: 7
C_SIG_BIT: 4
C_DELTA_BIT: 4

Initialize PREFETCH FILTER
FILTER_SET: 1024

*** ChampSim Multicore Out-of-Order Simulator ***

Warmup Instructions: 50000000
Simulation Instructions: 50000000
Number of CPUs: 1
LLC sets: 2048
LLC ways: 16
Off-chip DRAM Size: 4096 MB Channels: 1 Width: 64-bit Data Rate: 3200 MT/s

CPU 0 runs /home/tapatil/CSE240C/SA1/ChampSim-master/ipc1_public/server_019.champsimtrace.xz
CPU 0 EPI prefetcher
CPU 0 L1D next line prefetcher
Heartbeat CPU 0 instructions: 10000002 cycles: 3622972 heartbeat IPC: 2.76017 cumulative IPC: 2.76017 (Simulation time: 0 hr 0 min 33 sec) 
Heartbeat CPU 0 instructions: 20000003 cycles: 7246619 heartbeat IPC: 2.75965 cumulative IPC: 2.75991 (Simulation time: 0 hr 1 min 6 sec) 
Heartbeat CPU 0 instructions: 30000002 cycles: 10869229 heartbeat IPC: 2.76044 cumulative IPC: 2.76009 (Simulation time: 0 hr 1 min 40 sec) 
Heartbeat CPU 0 instructions: 40000002 cycles: 14503702 heartbeat IPC: 2.75143 cumulative IPC: 2.75792 (Simulation time: 0 hr 2 min 15 sec) 
Heartbeat CPU 0 instructions: 50000001 cycles: 18126765 heartbeat IPC: 2.7601 cumulative IPC: 2.75835 (Simulation time: 0 hr 2 min 47 sec) 

Warmup complete CPU 0 instructions: 50000001 cycles: 18126765 (Simulation time: 0 hr 2 min 47 sec) 

Heartbeat CPU 0 instructions: 60000000 cycles: 37900413 heartbeat IPC: 0.505724 cumulative IPC: 0.505724 (Simulation time: 0 hr 3 min 34 sec) 
Heartbeat CPU 0 instructions: 70000002 cycles: 61558857 heartbeat IPC: 0.422682 cumulative IPC: 0.460489 (Simulation time: 0 hr 4 min 17 sec) 
Heartbeat CPU 0 instructions: 80000001 cycles: 82182006 heartbeat IPC: 0.484892 cumulative IPC: 0.468346 (Simulation time: 0 hr 5 min 1 sec) 
Heartbeat CPU 0 instructions: 90000002 cycles: 99906856 heartbeat IPC: 0.56418 cumulative IPC: 0.489117 (Simulation time: 0 hr 5 min 43 sec) 
Heartbeat CPU 0 instructions: 100000002 cycles: 117534127 heartbeat IPC: 0.567303 cumulative IPC: 0.502981 (Simulation time: 0 hr 6 min 29 sec) 
Finished CPU 0 instructions: 50000001 cycles: 99407362 cumulative IPC: 0.502981 (Simulation time: 0 hr 6 min 29 sec) 

ChampSim completed all CPUs

Region of Interest Statistics

CPU 0 cumulative IPC: 0.502981 instructions: 50000001 cycles: 99407362
L1D TOTAL     ACCESS:   18300377  HIT:   16076686  MISS:    2223691
L1D LOAD      ACCESS:    6973914  HIT:    6216840  MISS:     757074
L1D RFO       ACCESS:    5518343  HIT:    4616420  MISS:     901923
L1D PREFETCH  ACCESS:    5808120  HIT:    5243426  MISS:     564694
L1D WRITEBACK ACCESS:          0  HIT:          0  MISS:          0
L1D PREFETCH  REQUESTED:    7011209  ISSUED:    6824747  USEFUL:     195431  USELESS:     369173
L1D AVERAGE MISS LATENCY: 185.877 cycles
L1I TOTAL     ACCESS:   32553661  HIT:   30307021  MISS:    2246640
L1I LOAD      ACCESS:    9856932  HIT:    9840086  MISS:      16846
L1I RFO       ACCESS:          0  HIT:          0  MISS:          0
L1I PREFETCH  ACCESS:   22696729  HIT:   20466935  MISS:    2229794
L1I WRITEBACK ACCESS:          0  HIT:          0  MISS:          0
L1I PREFETCH  REQUESTED:   26715181  ISSUED:   26715181  USEFUL:    2076891  USELESS:     152884
L1I AVERAGE MISS LATENCY: 20.1967 cycles
L2C TOTAL     ACCESS:    6664929  HIT:    4771672  MISS:    1893257
L2C LOAD      ACCESS:     565744  HIT:     232587  MISS:     333157
L2C RFO       ACCESS:     901478  HIT:      18217  MISS:     883261
L2C PREFETCH  ACCESS:    4023082  HIT:    3348618  MISS:     674464
L2C WRITEBACK ACCESS:    1174625  HIT:    1172250  MISS:       2375
L2C PREFETCH  REQUESTED:    3977600  ISSUED:    3974317  USEFUL:      22433  USELESS:     650645
L2C AVERAGE MISS LATENCY: 222.737 cycles
LLC TOTAL     ACCESS:    4112158  HIT:    2522905  MISS:    1589253
LLC LOAD      ACCESS:     333068  HIT:     168262  MISS:     164806
LLC RFO       ACCESS:     883249  HIT:     115081  MISS:     768168
LLC PREFETCH  ACCESS:    1784998  HIT:    1130858  MISS:     654140
LLC WRITEBACK ACCESS:    1110843  HIT:    1108704  MISS:       2139
LLC PREFETCH  REQUESTED:          0  ISSUED:          0  USEFUL:      50917  USELESS:     602730
LLC AVERAGE MISS LATENCY: 275.539 cycles
Major fault: 0 Minor fault: 25692
CPU 0 L1I EPI prefetcher final stats
CPU 0 L1D next line prefetcher final stats

DRAM Statistics
 CHANNEL 0
 RQ ROW_BUFFER_HIT:     391405  ROW_BUFFER_MISS:    1195462
 DBUS_CONGESTED:    1565002
 WQ ROW_BUFFER_HIT:     271098  ROW_BUFFER_MISS:     663331  FULL:          0

 AVG_CONGESTED_CYCLE: 6

CPU 0 Branch Prediction Accuracy: 99.2186% MPKI: 1.32192 Average ROB Occupancy at Mispredict: 179.628

Branch types
NOT_BRANCH: 41540785 83.0816%
BRANCH_DIRECT_JUMP: 462384 0.924768%
BRANCH_INDIRECT: 45460 0.09092%
BRANCH_CONDITIONAL: 6209281 12.4186%
BRANCH_DIRECT_CALL: 666241 1.33248%
BRANCH_INDIRECT_CALL: 204728 0.409456%
BRANCH_RETURN: 870978 1.74196%
BRANCH_OTHER: 0 0%

