Initialize SIGNATURE TABLE
ST_SET: 1
ST_WAY: 256
ST_TAG_BIT: 16
ST_TAG_MASK: ffff

Initialize PATTERN TABLE
PT_SET: 512
PT_WAY: 4
SIG_DELTA_BIT: 7
C_SIG_BIT: 4
C_DELTA_BIT: 4

Initialize PREFETCH FILTER
FILTER_SET: 1024

*** ChampSim Multicore Out-of-Order Simulator ***

Warmup Instructions: 50000000
Simulation Instructions: 50000000
Number of CPUs: 1
LLC sets: 2048
LLC ways: 16
Off-chip DRAM Size: 4096 MB Channels: 1 Width: 64-bit Data Rate: 3200 MT/s

CPU 0 runs /home/tapatil/CSE240C/SA1/ChampSim-master/ipc1_public/server_017.champsimtrace.xz
CPU 0 EPI prefetcher
CPU 0 L1D next line prefetcher
Heartbeat CPU 0 instructions: 10000001 cycles: 3622458 heartbeat IPC: 2.76056 cumulative IPC: 2.76056 (Simulation time: 0 hr 0 min 32 sec) 
Heartbeat CPU 0 instructions: 20000000 cycles: 7242479 heartbeat IPC: 2.76241 cumulative IPC: 2.76149 (Simulation time: 0 hr 1 min 5 sec) 
Heartbeat CPU 0 instructions: 30000002 cycles: 10869327 heartbeat IPC: 2.75722 cumulative IPC: 2.76006 (Simulation time: 0 hr 1 min 38 sec) 
Heartbeat CPU 0 instructions: 40000000 cycles: 14491256 heartbeat IPC: 2.76096 cumulative IPC: 2.76029 (Simulation time: 0 hr 2 min 12 sec) 
Heartbeat CPU 0 instructions: 50000001 cycles: 18123998 heartbeat IPC: 2.75274 cumulative IPC: 2.75877 (Simulation time: 0 hr 2 min 45 sec) 

Warmup complete CPU 0 instructions: 50000001 cycles: 18123998 (Simulation time: 0 hr 2 min 45 sec) 

Heartbeat CPU 0 instructions: 60000002 cycles: 35657945 heartbeat IPC: 0.570322 cumulative IPC: 0.570322 (Simulation time: 0 hr 3 min 29 sec) 
Heartbeat CPU 0 instructions: 70000002 cycles: 53298460 heartbeat IPC: 0.566877 cumulative IPC: 0.568594 (Simulation time: 0 hr 4 min 13 sec) 
Heartbeat CPU 0 instructions: 80000000 cycles: 70694018 heartbeat IPC: 0.574859 cumulative IPC: 0.570667 (Simulation time: 0 hr 4 min 57 sec) 
Heartbeat CPU 0 instructions: 90000002 cycles: 93836899 heartbeat IPC: 0.432098 cumulative IPC: 0.528312 (Simulation time: 0 hr 5 min 41 sec) 
Heartbeat CPU 0 instructions: 100000003 cycles: 113737938 heartbeat IPC: 0.502486 cumulative IPC: 0.522936 (Simulation time: 0 hr 6 min 26 sec) 
Finished CPU 0 instructions: 50000002 cycles: 95613940 cumulative IPC: 0.522936 (Simulation time: 0 hr 6 min 26 sec) 

ChampSim completed all CPUs

Region of Interest Statistics

CPU 0 cumulative IPC: 0.522936 instructions: 50000002 cycles: 95613940
L1D TOTAL     ACCESS:   18365351  HIT:   16199806  MISS:    2165545
L1D LOAD      ACCESS:    7021606  HIT:    6277629  MISS:     743977
L1D RFO       ACCESS:    5511580  HIT:    4652399  MISS:     859181
L1D PREFETCH  ACCESS:    5832165  HIT:    5269778  MISS:     562387
L1D WRITEBACK ACCESS:          0  HIT:          0  MISS:          0
L1D PREFETCH  REQUESTED:    7059297  ISSUED:    6868423  USEFUL:     200020  USELESS:     362428
L1D AVERAGE MISS LATENCY: 174.839 cycles
L1I TOTAL     ACCESS:   31793370  HIT:   29519474  MISS:    2273896
L1I LOAD      ACCESS:    9889649  HIT:    9871712  MISS:      17937
L1I RFO       ACCESS:          0  HIT:          0  MISS:          0
L1I PREFETCH  ACCESS:   21903721  HIT:   19647762  MISS:    2255959
L1I WRITEBACK ACCESS:          0  HIT:          0  MISS:          0
L1I PREFETCH  REQUESTED:   25816578  ISSUED:   25816578  USEFUL:    2098966  USELESS:     157001
L1I AVERAGE MISS LATENCY: 19.4386 cycles
L2C TOTAL     ACCESS:    6601766  HIT:    4759096  MISS:    1842670
L2C LOAD      ACCESS:     552267  HIT:     224125  MISS:     328142
L2C RFO       ACCESS:     858681  HIT:      17337  MISS:     841344
L2C PREFETCH  ACCESS:    4067943  HIT:    3396802  MISS:     671141
L2C WRITEBACK ACCESS:    1122875  HIT:    1120832  MISS:       2043
L2C PREFETCH  REQUESTED:    4123184  ISSUED:    4118076  USEFUL:      22079  USELESS:     649779
L2C AVERAGE MISS LATENCY: 209.2 cycles
LLC TOTAL     ACCESS:    4060082  HIT:    2540652  MISS:    1519430
LLC LOAD      ACCESS:     328024  HIT:     172035  MISS:     155989
LLC RFO       ACCESS:     841339  HIT:     123261  MISS:     718078
LLC PREFETCH  ACCESS:    1829228  HIT:    1185843  MISS:     643385
LLC WRITEBACK ACCESS:    1061491  HIT:    1059513  MISS:       1978
LLC PREFETCH  REQUESTED:          0  ISSUED:          0  USEFUL:      49389  USELESS:     593662
LLC AVERAGE MISS LATENCY: 265.522 cycles
Major fault: 0 Minor fault: 24694
CPU 0 L1I EPI prefetcher final stats
CPU 0 L1D next line prefetcher final stats

DRAM Statistics
 CHANNEL 0
 RQ ROW_BUFFER_HIT:     374631  ROW_BUFFER_MISS:    1142653
 DBUS_CONGESTED:    1463210
 WQ ROW_BUFFER_HIT:     251385  ROW_BUFFER_MISS:     625176  FULL:          0

 AVG_CONGESTED_CYCLE: 6

CPU 0 Branch Prediction Accuracy: 99.2833% MPKI: 1.20568 Average ROB Occupancy at Mispredict: 182.309

Branch types
NOT_BRANCH: 41588350 83.1767%
BRANCH_DIRECT_JUMP: 464501 0.929002%
BRANCH_INDIRECT: 45704 0.091408%
BRANCH_CONDITIONAL: 6147408 12.2948%
BRANCH_DIRECT_CALL: 675450 1.3509%
BRANCH_INDIRECT_CALL: 201532 0.403064%
BRANCH_RETURN: 876985 1.75397%
BRANCH_OTHER: 0 0%

