Initialize SIGNATURE TABLE
ST_SET: 1
ST_WAY: 256
ST_TAG_BIT: 16
ST_TAG_MASK: ffff

Initialize PATTERN TABLE
PT_SET: 512
PT_WAY: 4
SIG_DELTA_BIT: 7
C_SIG_BIT: 4
C_DELTA_BIT: 4

Initialize PREFETCH FILTER
FILTER_SET: 1024

*** ChampSim Multicore Out-of-Order Simulator ***

Warmup Instructions: 50000000
Simulation Instructions: 50000000
Number of CPUs: 1
LLC sets: 2048
LLC ways: 16
Off-chip DRAM Size: 4096 MB Channels: 1 Width: 64-bit Data Rate: 3200 MT/s

CPU 0 runs /home/tapatil/CSE240C/SA1/ChampSim-master/ipc1_public/server_015.champsimtrace.xz
CPU 0 EPI prefetcher
CPU 0 L1D next line prefetcher
Heartbeat CPU 0 instructions: 10000002 cycles: 3519388 heartbeat IPC: 2.8414 cumulative IPC: 2.8414 (Simulation time: 0 hr 0 min 35 sec) 
Heartbeat CPU 0 instructions: 20000001 cycles: 7107146 heartbeat IPC: 2.78726 cumulative IPC: 2.81407 (Simulation time: 0 hr 1 min 10 sec) 
Heartbeat CPU 0 instructions: 30000001 cycles: 10646144 heartbeat IPC: 2.82566 cumulative IPC: 2.81792 (Simulation time: 0 hr 1 min 46 sec) 
Heartbeat CPU 0 instructions: 40000002 cycles: 14194184 heartbeat IPC: 2.81846 cumulative IPC: 2.81806 (Simulation time: 0 hr 2 min 23 sec) 
Heartbeat CPU 0 instructions: 50000002 cycles: 17742444 heartbeat IPC: 2.81828 cumulative IPC: 2.8181 (Simulation time: 0 hr 2 min 59 sec) 

Warmup complete CPU 0 instructions: 50000002 cycles: 17742444 (Simulation time: 0 hr 2 min 59 sec) 

Heartbeat CPU 0 instructions: 60000002 cycles: 24041193 heartbeat IPC: 1.58762 cumulative IPC: 1.58762 (Simulation time: 0 hr 3 min 40 sec) 
Heartbeat CPU 0 instructions: 70000003 cycles: 30350030 heartbeat IPC: 1.58508 cumulative IPC: 1.58635 (Simulation time: 0 hr 4 min 21 sec) 
Heartbeat CPU 0 instructions: 80000000 cycles: 36657883 heartbeat IPC: 1.58533 cumulative IPC: 1.58601 (Simulation time: 0 hr 4 min 59 sec) 
Heartbeat CPU 0 instructions: 90000000 cycles: 42968903 heartbeat IPC: 1.58453 cumulative IPC: 1.58564 (Simulation time: 0 hr 5 min 37 sec) 
Heartbeat CPU 0 instructions: 100000002 cycles: 49276198 heartbeat IPC: 1.58547 cumulative IPC: 1.5856 (Simulation time: 0 hr 6 min 16 sec) 
Finished CPU 0 instructions: 50000000 cycles: 31533754 cumulative IPC: 1.5856 (Simulation time: 0 hr 6 min 16 sec) 

ChampSim completed all CPUs

Region of Interest Statistics

CPU 0 cumulative IPC: 1.5856 instructions: 50000000 cycles: 31533754
L1D TOTAL     ACCESS:   21816796  HIT:   21800029  MISS:      16767
L1D LOAD      ACCESS:    6685261  HIT:    6684731  MISS:        530
L1D RFO       ACCESS:    8561444  HIT:    8561348  MISS:         96
L1D PREFETCH  ACCESS:    6570091  HIT:    6553950  MISS:      16141
L1D WRITEBACK ACCESS:          0  HIT:          0  MISS:          0
L1D PREFETCH  REQUESTED:    6685319  ISSUED:    6574526  USEFUL:         84  USELESS:      16055
L1D AVERAGE MISS LATENCY: 16.4938 cycles
L1I TOTAL     ACCESS:   49852980  HIT:   47429837  MISS:    2423143
L1I LOAD      ACCESS:    9748213  HIT:    9702272  MISS:      45941
L1I RFO       ACCESS:          0  HIT:          0  MISS:          0
L1I PREFETCH  ACCESS:   40104767  HIT:   37727565  MISS:    2377202
L1I WRITEBACK ACCESS:          0  HIT:          0  MISS:          0
L1I PREFETCH  REQUESTED:   49848555  ISSUED:   49848555  USEFUL:    1912770  USELESS:     464435
L1I AVERAGE MISS LATENCY: 14.3932 cycles
L2C TOTAL     ACCESS:    3333164  HIT:    3332784  MISS:        380
L2C LOAD      ACCESS:      43084  HIT:      43019  MISS:         65
L2C RFO       ACCESS:         94  HIT:         91  MISS:          3
L2C PREFETCH  ACCESS:    3289638  HIT:    3289326  MISS:        312
L2C WRITEBACK ACCESS:        348  HIT:        348  MISS:          0
L2C PREFETCH  REQUESTED:    1645120  ISSUED:    1645107  USEFUL:         77  USELESS:        163
L2C AVERAGE MISS LATENCY: 102.871 cycles
LLC TOTAL     ACCESS:     169288  HIT:     168501  MISS:        787
LLC LOAD      ACCESS:         64  HIT:         51  MISS:         13
LLC RFO       ACCESS:          3  HIT:          1  MISS:          2
LLC PREFETCH  ACCESS:     169113  HIT:     168346  MISS:        767
LLC WRITEBACK ACCESS:        108  HIT:        103  MISS:          5
LLC PREFETCH  REQUESTED:          0  ISSUED:          0  USEFUL:          8  USELESS:        150
LLC AVERAGE MISS LATENCY: 347.3 cycles
Major fault: 0 Minor fault: 1888
CPU 0 L1I EPI prefetcher final stats
CPU 0 L1D next line prefetcher final stats

DRAM Statistics
 CHANNEL 0
 RQ ROW_BUFFER_HIT:        125  ROW_BUFFER_MISS:        657
 DBUS_CONGESTED:        451
 WQ ROW_BUFFER_HIT:         73  ROW_BUFFER_MISS:        487  FULL:          0

 AVG_CONGESTED_CYCLE: 6

CPU 0 Branch Prediction Accuracy: 99.9085% MPKI: 0.15428 Average ROB Occupancy at Mispredict: 300.14

Branch types
NOT_BRANCH: 41573131 83.1463%
BRANCH_DIRECT_JUMP: 436254 0.872508%
BRANCH_INDIRECT: 0 0%
BRANCH_CONDITIONAL: 5395897 10.7918%
BRANCH_DIRECT_CALL: 1173391 2.34678%
BRANCH_INDIRECT_CALL: 123911 0.247822%
BRANCH_RETURN: 1297311 2.59462%
BRANCH_OTHER: 0 0%

