Initialize SIGNATURE TABLE
ST_SET: 1
ST_WAY: 256
ST_TAG_BIT: 16
ST_TAG_MASK: ffff

Initialize PATTERN TABLE
PT_SET: 512
PT_WAY: 4
SIG_DELTA_BIT: 7
C_SIG_BIT: 4
C_DELTA_BIT: 4

Initialize PREFETCH FILTER
FILTER_SET: 1024

*** ChampSim Multicore Out-of-Order Simulator ***

Warmup Instructions: 50000000
Simulation Instructions: 50000000
Number of CPUs: 1
LLC sets: 2048
LLC ways: 16
Off-chip DRAM Size: 4096 MB Channels: 1 Width: 64-bit Data Rate: 3200 MT/s

CPU 0 runs /home/tapatil/CSE240C/SA1/ChampSim-master/ipc1_public/server_003.champsimtrace.xz
CPU 0 EPI prefetcher
CPU 0 L1D next line prefetcher
Heartbeat CPU 0 instructions: 10000002 cycles: 3222119 heartbeat IPC: 3.10355 cumulative IPC: 3.10355 (Simulation time: 0 hr 0 min 32 sec) 
Heartbeat CPU 0 instructions: 20000000 cycles: 6540606 heartbeat IPC: 3.01342 cumulative IPC: 3.05782 (Simulation time: 0 hr 1 min 4 sec) 
Heartbeat CPU 0 instructions: 30000000 cycles: 9749774 heartbeat IPC: 3.11607 cumulative IPC: 3.07699 (Simulation time: 0 hr 1 min 36 sec) 
Heartbeat CPU 0 instructions: 40000001 cycles: 13165310 heartbeat IPC: 2.9278 cumulative IPC: 3.03829 (Simulation time: 0 hr 2 min 11 sec) 
Heartbeat CPU 0 instructions: 50000003 cycles: 16883950 heartbeat IPC: 2.68916 cumulative IPC: 2.96139 (Simulation time: 0 hr 2 min 47 sec) 

Warmup complete CPU 0 instructions: 50000003 cycles: 16883950 (Simulation time: 0 hr 2 min 47 sec) 

Heartbeat CPU 0 instructions: 60000000 cycles: 25606406 heartbeat IPC: 1.14647 cumulative IPC: 1.14647 (Simulation time: 0 hr 3 min 22 sec) 
Heartbeat CPU 0 instructions: 70000003 cycles: 34537390 heartbeat IPC: 1.1197 cumulative IPC: 1.13292 (Simulation time: 0 hr 3 min 52 sec) 
Heartbeat CPU 0 instructions: 80000000 cycles: 44317511 heartbeat IPC: 1.02248 cumulative IPC: 1.09355 (Simulation time: 0 hr 4 min 24 sec) 
Heartbeat CPU 0 instructions: 90000001 cycles: 54103002 heartbeat IPC: 1.02192 cumulative IPC: 1.07472 (Simulation time: 0 hr 4 min 56 sec) 
Heartbeat CPU 0 instructions: 100000003 cycles: 64349425 heartbeat IPC: 0.975951 cumulative IPC: 1.0534 (Simulation time: 0 hr 5 min 27 sec) 
Finished CPU 0 instructions: 50000000 cycles: 47465475 cumulative IPC: 1.0534 (Simulation time: 0 hr 5 min 27 sec) 

ChampSim completed all CPUs

Region of Interest Statistics

CPU 0 cumulative IPC: 1.0534 instructions: 50000000 cycles: 47465475
L1D TOTAL     ACCESS:   19931036  HIT:   18790279  MISS:    1140757
L1D LOAD      ACCESS:    7821147  HIT:    7290551  MISS:     530596
L1D RFO       ACCESS:    4549640  HIT:    4432288  MISS:     117352
L1D PREFETCH  ACCESS:    7560249  HIT:    7067440  MISS:     492809
L1D WRITEBACK ACCESS:          0  HIT:          0  MISS:          0
L1D PREFETCH  REQUESTED:    7880543  ISSUED:    7789084  USEFUL:     154603  USELESS:     338165
L1D AVERAGE MISS LATENCY: 55.2614 cycles
L1I TOTAL     ACCESS:   34996776  HIT:   33661718  MISS:    1335058
L1I LOAD      ACCESS:    9296086  HIT:    9225974  MISS:      70112
L1I RFO       ACCESS:          0  HIT:          0  MISS:          0
L1I PREFETCH  ACCESS:   25700690  HIT:   24435744  MISS:    1264946
L1I WRITEBACK ACCESS:          0  HIT:          0  MISS:          0
L1I PREFETCH  REQUESTED:   33739513  ISSUED:   33739513  USEFUL:     884172  USELESS:     380818
L1I AVERAGE MISS LATENCY: 39.2954 cycles
L2C TOTAL     ACCESS:    3315829  HIT:    2339478  MISS:     976351
L2C LOAD      ACCESS:     550976  HIT:     308900  MISS:     242076
L2C RFO       ACCESS:     114660  HIT:      40655  MISS:      74005
L2C PREFETCH  ACCESS:    2365943  HIT:    1706766  MISS:     659177
L2C WRITEBACK ACCESS:     284250  HIT:     283157  MISS:       1093
L2C PREFETCH  REQUESTED:    2681118  ISSUED:    2678747  USEFUL:      28259  USELESS:     628340
L2C AVERAGE MISS LATENCY: 82.9357 cycles
LLC TOTAL     ACCESS:    1837132  HIT:    1470684  MISS:     366448
LLC LOAD      ACCESS:     241546  HIT:     177228  MISS:      64318
LLC RFO       ACCESS:      74005  HIT:      31651  MISS:      42354
LLC PREFETCH  ACCESS:    1356808  HIT:    1098537  MISS:     258271
LLC WRITEBACK ACCESS:     164773  HIT:     163268  MISS:       1505
LLC PREFETCH  REQUESTED:          0  ISSUED:          0  USEFUL:      30322  USELESS:     216488
LLC AVERAGE MISS LATENCY: 194.133 cycles
Major fault: 0 Minor fault: 7777
CPU 0 L1I EPI prefetcher final stats
CPU 0 L1D next line prefetcher final stats

DRAM Statistics
 CHANNEL 0
 RQ ROW_BUFFER_HIT:      82184  ROW_BUFFER_MISS:     282698
 DBUS_CONGESTED:     188548
 WQ ROW_BUFFER_HIT:      22565  ROW_BUFFER_MISS:      80827  FULL:          0

 AVG_CONGESTED_CYCLE: 5

CPU 0 Branch Prediction Accuracy: 95.439% MPKI: 9.02702 Average ROB Occupancy at Mispredict: 70.1613

Branch types
NOT_BRANCH: 40104066 80.2081%
BRANCH_DIRECT_JUMP: 497928 0.995856%
BRANCH_INDIRECT: 130587 0.261174%
BRANCH_CONDITIONAL: 7219014 14.438%
BRANCH_DIRECT_CALL: 625807 1.25161%
BRANCH_INDIRECT_CALL: 389787 0.779574%
BRANCH_RETURN: 1032747 2.06549%
BRANCH_OTHER: 0 0%

