Initialize SIGNATURE TABLE
ST_SET: 1
ST_WAY: 256
ST_TAG_BIT: 16
ST_TAG_MASK: ffff

Initialize PATTERN TABLE
PT_SET: 512
PT_WAY: 4
SIG_DELTA_BIT: 7
C_SIG_BIT: 4
C_DELTA_BIT: 4

Initialize PREFETCH FILTER
FILTER_SET: 1024

*** ChampSim Multicore Out-of-Order Simulator ***

Warmup Instructions: 50000000
Simulation Instructions: 50000000
Number of CPUs: 1
LLC sets: 2048
LLC ways: 16
Off-chip DRAM Size: 4096 MB Channels: 1 Width: 64-bit Data Rate: 3200 MT/s

CPU 0 runs /home/tapatil/CSE240C/SA1/ChampSim-master/ipc1_public/server_017.champsimtrace.xz
CPU 0 EPI prefetcher
CPU 0 L1D next line prefetcher
Heartbeat CPU 0 instructions: 10000001 cycles: 3622254 heartbeat IPC: 2.76071 cumulative IPC: 2.76071 (Simulation time: 0 hr 0 min 31 sec) 
Heartbeat CPU 0 instructions: 20000000 cycles: 7242075 heartbeat IPC: 2.76257 cumulative IPC: 2.76164 (Simulation time: 0 hr 1 min 4 sec) 
Heartbeat CPU 0 instructions: 30000002 cycles: 10868619 heartbeat IPC: 2.75745 cumulative IPC: 2.76024 (Simulation time: 0 hr 1 min 37 sec) 
Heartbeat CPU 0 instructions: 40000000 cycles: 14490168 heartbeat IPC: 2.76125 cumulative IPC: 2.76049 (Simulation time: 0 hr 2 min 11 sec) 
Heartbeat CPU 0 instructions: 50000001 cycles: 18122750 heartbeat IPC: 2.75286 cumulative IPC: 2.75896 (Simulation time: 0 hr 2 min 44 sec) 

Warmup complete CPU 0 instructions: 50000001 cycles: 18122750 (Simulation time: 0 hr 2 min 44 sec) 

Heartbeat CPU 0 instructions: 60000002 cycles: 35612735 heartbeat IPC: 0.571756 cumulative IPC: 0.571756 (Simulation time: 0 hr 3 min 28 sec) 
Heartbeat CPU 0 instructions: 70000002 cycles: 53261227 heartbeat IPC: 0.566621 cumulative IPC: 0.569177 (Simulation time: 0 hr 4 min 11 sec) 
Heartbeat CPU 0 instructions: 80000000 cycles: 70693629 heartbeat IPC: 0.573644 cumulative IPC: 0.570658 (Simulation time: 0 hr 4 min 56 sec) 
Heartbeat CPU 0 instructions: 90000002 cycles: 93960189 heartbeat IPC: 0.429801 cumulative IPC: 0.527444 (Simulation time: 0 hr 5 min 39 sec) 
Heartbeat CPU 0 instructions: 100000003 cycles: 113958545 heartbeat IPC: 0.500041 cumulative IPC: 0.521726 (Simulation time: 0 hr 6 min 25 sec) 
Finished CPU 0 instructions: 50000002 cycles: 95835795 cumulative IPC: 0.521726 (Simulation time: 0 hr 6 min 25 sec) 

ChampSim completed all CPUs

Region of Interest Statistics

CPU 0 cumulative IPC: 0.521726 instructions: 50000002 cycles: 95835795
L1D TOTAL     ACCESS:   18372027  HIT:   16206546  MISS:    2165481
L1D LOAD      ACCESS:    7021748  HIT:    6275933  MISS:     745815
L1D RFO       ACCESS:    5518578  HIT:    4659467  MISS:     859111
L1D PREFETCH  ACCESS:    5831701  HIT:    5271146  MISS:     560555
L1D WRITEBACK ACCESS:          0  HIT:          0  MISS:          0
L1D PREFETCH  REQUESTED:    7059067  ISSUED:    6867805  USEFUL:     198232  USELESS:     362384
L1D AVERAGE MISS LATENCY: 174.96 cycles
L1I TOTAL     ACCESS:   31118746  HIT:   28846913  MISS:    2271833
L1I LOAD      ACCESS:    9875788  HIT:    9860105  MISS:      15683
L1I RFO       ACCESS:          0  HIT:          0  MISS:          0
L1I PREFETCH  ACCESS:   21242958  HIT:   18986808  MISS:    2256150
L1I WRITEBACK ACCESS:          0  HIT:          0  MISS:          0
L1I PREFETCH  REQUESTED:   25108123  ISSUED:   25108123  USEFUL:    2093539  USELESS:     162634
L1I AVERAGE MISS LATENCY: 19.2708 cycles
L2C TOTAL     ACCESS:    6593777  HIT:    4749936  MISS:    1843841
L2C LOAD      ACCESS:     550194  HIT:     221498  MISS:     328696
L2C RFO       ACCESS:     858663  HIT:      17339  MISS:     841324
L2C PREFETCH  ACCESS:    4062073  HIT:    3390140  MISS:     671933
L2C WRITEBACK ACCESS:    1122847  HIT:    1120959  MISS:       1888
L2C PREFETCH  REQUESTED:    4061632  ISSUED:    4057166  USEFUL:      21650  USELESS:     651039
L2C AVERAGE MISS LATENCY: 209.236 cycles
LLC TOTAL     ACCESS:    4008234  HIT:    2507876  MISS:    1500358
LLC LOAD      ACCESS:     328597  HIT:     172609  MISS:     155988
LLC RFO       ACCESS:     841318  HIT:     123653  MISS:     717665
LLC PREFETCH  ACCESS:    1776983  HIT:    1152209  MISS:     624774
LLC WRITEBACK ACCESS:    1061336  HIT:    1059405  MISS:       1931
LLC PREFETCH  REQUESTED:          0  ISSUED:          0  USEFUL:      47941  USELESS:     576764
LLC AVERAGE MISS LATENCY: 265.474 cycles
Major fault: 0 Minor fault: 24697
CPU 0 L1I EPI prefetcher final stats
CPU 0 L1D next line prefetcher final stats

DRAM Statistics
 CHANNEL 0
 RQ ROW_BUFFER_HIT:     370332  ROW_BUFFER_MISS:    1127954
 DBUS_CONGESTED:    1451199
 WQ ROW_BUFFER_HIT:     255791  ROW_BUFFER_MISS:     619376  FULL:          0

 AVG_CONGESTED_CYCLE: 6

CPU 0 Branch Prediction Accuracy: 99.2833% MPKI: 1.20568 Average ROB Occupancy at Mispredict: 182.33

Branch types
NOT_BRANCH: 41588350 83.1767%
BRANCH_DIRECT_JUMP: 464501 0.929002%
BRANCH_INDIRECT: 45704 0.091408%
BRANCH_CONDITIONAL: 6147408 12.2948%
BRANCH_DIRECT_CALL: 675450 1.3509%
BRANCH_INDIRECT_CALL: 201532 0.403064%
BRANCH_RETURN: 876985 1.75397%
BRANCH_OTHER: 0 0%

