Initialize SIGNATURE TABLE
ST_SET: 1
ST_WAY: 256
ST_TAG_BIT: 16
ST_TAG_MASK: ffff

Initialize PATTERN TABLE
PT_SET: 512
PT_WAY: 4
SIG_DELTA_BIT: 7
C_SIG_BIT: 4
C_DELTA_BIT: 4

Initialize PREFETCH FILTER
FILTER_SET: 1024

*** ChampSim Multicore Out-of-Order Simulator ***

Warmup Instructions: 50000000
Simulation Instructions: 50000000
Number of CPUs: 1
LLC sets: 2048
LLC ways: 16
Off-chip DRAM Size: 4096 MB Channels: 1 Width: 64-bit Data Rate: 3200 MT/s

CPU 0 runs /home/tapatil/CSE240C/SA1/ChampSim-master/ipc1_public/server_003.champsimtrace.xz
CPU 0 EPI prefetcher
CPU 0 L1D next line prefetcher
Heartbeat CPU 0 instructions: 10000002 cycles: 3222488 heartbeat IPC: 3.10319 cumulative IPC: 3.10319 (Simulation time: 0 hr 0 min 31 sec) 
Heartbeat CPU 0 instructions: 20000000 cycles: 6541252 heartbeat IPC: 3.01317 cumulative IPC: 3.05752 (Simulation time: 0 hr 1 min 2 sec) 
Heartbeat CPU 0 instructions: 30000000 cycles: 9750395 heartbeat IPC: 3.1161 cumulative IPC: 3.0768 (Simulation time: 0 hr 1 min 33 sec) 
Heartbeat CPU 0 instructions: 40000001 cycles: 13166464 heartbeat IPC: 2.92734 cumulative IPC: 3.03802 (Simulation time: 0 hr 2 min 7 sec) 
Heartbeat CPU 0 instructions: 50000003 cycles: 16885145 heartbeat IPC: 2.68913 cumulative IPC: 2.96118 (Simulation time: 0 hr 2 min 41 sec) 

Warmup complete CPU 0 instructions: 50000003 cycles: 16885145 (Simulation time: 0 hr 2 min 41 sec) 

Heartbeat CPU 0 instructions: 60000000 cycles: 25599781 heartbeat IPC: 1.14749 cumulative IPC: 1.14749 (Simulation time: 0 hr 3 min 15 sec) 
Heartbeat CPU 0 instructions: 70000003 cycles: 34530900 heartbeat IPC: 1.11968 cumulative IPC: 1.13342 (Simulation time: 0 hr 3 min 45 sec) 
Heartbeat CPU 0 instructions: 80000000 cycles: 44320069 heartbeat IPC: 1.02154 cumulative IPC: 1.0935 (Simulation time: 0 hr 4 min 17 sec) 
Heartbeat CPU 0 instructions: 90000001 cycles: 54130652 heartbeat IPC: 1.01931 cumulative IPC: 1.07395 (Simulation time: 0 hr 4 min 49 sec) 
Heartbeat CPU 0 instructions: 100000001 cycles: 64344810 heartbeat IPC: 0.979033 cumulative IPC: 1.05353 (Simulation time: 0 hr 5 min 20 sec) 
Finished CPU 0 instructions: 50000002 cycles: 47459666 cumulative IPC: 1.05353 (Simulation time: 0 hr 5 min 20 sec) 

ChampSim completed all CPUs

Region of Interest Statistics

CPU 0 cumulative IPC: 1.05353 instructions: 50000002 cycles: 47459666
L1D TOTAL     ACCESS:   19932903  HIT:   18792125  MISS:    1140778
L1D LOAD      ACCESS:    7822478  HIT:    7291986  MISS:     530492
L1D RFO       ACCESS:    4548782  HIT:    4431370  MISS:     117412
L1D PREFETCH  ACCESS:    7561643  HIT:    7068769  MISS:     492874
L1D WRITEBACK ACCESS:          0  HIT:          0  MISS:          0
L1D PREFETCH  REQUESTED:    7881839  ISSUED:    7790335  USEFUL:     154664  USELESS:     338169
L1D AVERAGE MISS LATENCY: 55.1622 cycles
L1I TOTAL     ACCESS:   34895391  HIT:   33552765  MISS:    1342626
L1I LOAD      ACCESS:    9294779  HIT:    9222685  MISS:      72094
L1I RFO       ACCESS:          0  HIT:          0  MISS:          0
L1I PREFETCH  ACCESS:   25600612  HIT:   24330080  MISS:    1270532
L1I WRITEBACK ACCESS:          0  HIT:          0  MISS:          0
L1I PREFETCH  REQUESTED:   33563756  ISSUED:   33563756  USEFUL:     880380  USELESS:     390181
L1I AVERAGE MISS LATENCY: 39.1231 cycles
L2C TOTAL     ACCESS:    3326282  HIT:    2349254  MISS:     977028
L2C LOAD      ACCESS:     551830  HIT:     309142  MISS:     242688
L2C RFO       ACCESS:     114710  HIT:      40450  MISS:      74260
L2C PREFETCH  ACCESS:    2375489  HIT:    1716471  MISS:     659018
L2C WRITEBACK ACCESS:     284253  HIT:     283191  MISS:       1062
L2C PREFETCH  REQUESTED:    2730138  ISSUED:    2726674  USEFUL:      28167  USELESS:     628167
L2C AVERAGE MISS LATENCY: 82.6743 cycles
LLC TOTAL     ACCESS:    1855875  HIT:    1490041  MISS:     365834
LLC LOAD      ACCESS:     242177  HIT:     177958  MISS:      64219
LLC RFO       ACCESS:      74258  HIT:      32030  MISS:      42228
LLC PREFETCH  ACCESS:    1373863  HIT:    1115975  MISS:     257888
LLC WRITEBACK ACCESS:     165577  HIT:     164078  MISS:       1499
LLC PREFETCH  REQUESTED:          0  ISSUED:          0  USEFUL:      30788  USELESS:     215986
LLC AVERAGE MISS LATENCY: 193.977 cycles
Major fault: 0 Minor fault: 7777
CPU 0 L1I EPI prefetcher final stats
CPU 0 L1D next line prefetcher final stats

DRAM Statistics
 CHANNEL 0
 RQ ROW_BUFFER_HIT:      82621  ROW_BUFFER_MISS:     281654
 DBUS_CONGESTED:     188730
 WQ ROW_BUFFER_HIT:      22517  ROW_BUFFER_MISS:      80473  FULL:          0

 AVG_CONGESTED_CYCLE: 5

CPU 0 Branch Prediction Accuracy: 95.439% MPKI: 9.02702 Average ROB Occupancy at Mispredict: 70.0578

Branch types
NOT_BRANCH: 40104088 80.2082%
BRANCH_DIRECT_JUMP: 497928 0.995856%
BRANCH_INDIRECT: 130587 0.261174%
BRANCH_CONDITIONAL: 7219018 14.438%
BRANCH_DIRECT_CALL: 625807 1.25161%
BRANCH_INDIRECT_CALL: 389787 0.779574%
BRANCH_RETURN: 1032747 2.06549%
BRANCH_OTHER: 0 0%

