Initialize SIGNATURE TABLE
ST_SET: 1
ST_WAY: 256
ST_TAG_BIT: 16
ST_TAG_MASK: ffff

Initialize PATTERN TABLE
PT_SET: 512
PT_WAY: 4
SIG_DELTA_BIT: 7
C_SIG_BIT: 4
C_DELTA_BIT: 4

Initialize PREFETCH FILTER
FILTER_SET: 1024

*** ChampSim Multicore Out-of-Order Simulator ***

Warmup Instructions: 50000000
Simulation Instructions: 50000000
Number of CPUs: 1
LLC sets: 2048
LLC ways: 16
Off-chip DRAM Size: 4096 MB Channels: 1 Width: 64-bit Data Rate: 3200 MT/s

CPU 0 runs /home/tapatil/CSE240C/SA1/ChampSim-master/ipc1_public/server_018.champsimtrace.xz
CPU 0 EPI prefetcher
CPU 0 L1D next line prefetcher
Heartbeat CPU 0 instructions: 10000003 cycles: 3615824 heartbeat IPC: 2.76562 cumulative IPC: 2.76562 (Simulation time: 0 hr 0 min 33 sec) 
Heartbeat CPU 0 instructions: 20000001 cycles: 7237004 heartbeat IPC: 2.76153 cumulative IPC: 2.76357 (Simulation time: 0 hr 1 min 5 sec) 
Heartbeat CPU 0 instructions: 30000003 cycles: 10712337 heartbeat IPC: 2.87742 cumulative IPC: 2.80051 (Simulation time: 0 hr 1 min 36 sec) 
Heartbeat CPU 0 instructions: 40000000 cycles: 14224315 heartbeat IPC: 2.8474 cumulative IPC: 2.81209 (Simulation time: 0 hr 2 min 8 sec) 
Heartbeat CPU 0 instructions: 50000003 cycles: 17841794 heartbeat IPC: 2.76436 cumulative IPC: 2.80241 (Simulation time: 0 hr 2 min 41 sec) 

Warmup complete CPU 0 instructions: 50000003 cycles: 17841794 (Simulation time: 0 hr 2 min 41 sec) 

Heartbeat CPU 0 instructions: 60000000 cycles: 35334416 heartbeat IPC: 0.571669 cumulative IPC: 0.571669 (Simulation time: 0 hr 3 min 25 sec) 
Heartbeat CPU 0 instructions: 70000001 cycles: 52903194 heartbeat IPC: 0.569192 cumulative IPC: 0.570428 (Simulation time: 0 hr 4 min 9 sec) 
Heartbeat CPU 0 instructions: 80000003 cycles: 70329388 heartbeat IPC: 0.573849 cumulative IPC: 0.571564 (Simulation time: 0 hr 4 min 53 sec) 
Heartbeat CPU 0 instructions: 90000002 cycles: 87740914 heartbeat IPC: 0.574332 cumulative IPC: 0.572253 (Simulation time: 0 hr 5 min 38 sec) 
Heartbeat CPU 0 instructions: 100000000 cycles: 105151730 heartbeat IPC: 0.574355 cumulative IPC: 0.572672 (Simulation time: 0 hr 6 min 24 sec) 
Finished CPU 0 instructions: 50000002 cycles: 87309939 cumulative IPC: 0.572672 (Simulation time: 0 hr 6 min 24 sec) 

ChampSim completed all CPUs

Region of Interest Statistics

CPU 0 cumulative IPC: 0.572672 instructions: 50000002 cycles: 87309939
L1D TOTAL     ACCESS:   18611380  HIT:   16393578  MISS:    2217802
L1D LOAD      ACCESS:    7041276  HIT:    6314410  MISS:     726866
L1D RFO       ACCESS:    5807643  HIT:    4855404  MISS:     952239
L1D PREFETCH  ACCESS:    5762461  HIT:    5223764  MISS:     538697
L1D WRITEBACK ACCESS:          0  HIT:          0  MISS:          0
L1D PREFETCH  REQUESTED:    7082984  ISSUED:    6879194  USEFUL:     198950  USELESS:     339836
L1D AVERAGE MISS LATENCY: 174.71 cycles
L1I TOTAL     ACCESS:   32475949  HIT:   29944377  MISS:    2531572
L1I LOAD      ACCESS:   10110932  HIT:   10092984  MISS:      17948
L1I RFO       ACCESS:          0  HIT:          0  MISS:          0
L1I PREFETCH  ACCESS:   22365017  HIT:   19851393  MISS:    2513624
L1I WRITEBACK ACCESS:          0  HIT:          0  MISS:          0
L1I PREFETCH  REQUESTED:   26314313  ISSUED:   26314313  USEFUL:    2343358  USELESS:     170279
L1I AVERAGE MISS LATENCY: 18.8399 cycles
L2C TOTAL     ACCESS:    7017924  HIT:    5155253  MISS:    1862671
L2C LOAD      ACCESS:     511453  HIT:     249093  MISS:     262360
L2C RFO       ACCESS:     951714  HIT:      20124  MISS:     931590
L2C PREFETCH  ACCESS:    4384729  HIT:    3718657  MISS:     666072
L2C WRITEBACK ACCESS:    1170028  HIT:    1167379  MISS:       2649
L2C PREFETCH  REQUESTED:    4232286  ISSUED:    4225852  USEFUL:      23153  USELESS:     643992
L2C AVERAGE MISS LATENCY: 212.81 cycles
LLC TOTAL     ACCESS:    4049563  HIT:    2628454  MISS:    1421109
LLC LOAD      ACCESS:     262225  HIT:     165651  MISS:      96574
LLC RFO       ACCESS:     931575  HIT:     138262  MISS:     793313
LLC PREFETCH  ACCESS:    1754620  HIT:    1225294  MISS:     529326
LLC WRITEBACK ACCESS:    1101143  HIT:    1099247  MISS:       1896
LLC PREFETCH  REQUESTED:          0  ISSUED:          0  USEFUL:      28424  USELESS:     501245
LLC AVERAGE MISS LATENCY: 279.944 cycles
Major fault: 0 Minor fault: 22446
CPU 0 L1I EPI prefetcher final stats
CPU 0 L1D next line prefetcher final stats

DRAM Statistics
 CHANNEL 0
 RQ ROW_BUFFER_HIT:     401229  ROW_BUFFER_MISS:    1017745
 DBUS_CONGESTED:    1427695
 WQ ROW_BUFFER_HIT:     263706  ROW_BUFFER_MISS:     628055  FULL:          0

 AVG_CONGESTED_CYCLE: 6

CPU 0 Branch Prediction Accuracy: 99.7114% MPKI: 0.47678 Average ROB Occupancy at Mispredict: 212.96

Branch types
NOT_BRANCH: 41741019 83.482%
BRANCH_DIRECT_JUMP: 458652 0.917304%
BRANCH_INDIRECT: 48282 0.096564%
BRANCH_CONDITIONAL: 5930882 11.8618%
BRANCH_DIRECT_CALL: 744230 1.48846%
BRANCH_INDIRECT_CALL: 166336 0.332672%
BRANCH_RETURN: 910589 1.82118%
BRANCH_OTHER: 0 0%

