Initialize SIGNATURE TABLE
ST_SET: 1
ST_WAY: 256
ST_TAG_BIT: 16
ST_TAG_MASK: ffff

Initialize PATTERN TABLE
PT_SET: 512
PT_WAY: 4
SIG_DELTA_BIT: 7
C_SIG_BIT: 4
C_DELTA_BIT: 4

Initialize PREFETCH FILTER
FILTER_SET: 1024

*** ChampSim Multicore Out-of-Order Simulator ***

Warmup Instructions: 50000000
Simulation Instructions: 50000000
Number of CPUs: 1
LLC sets: 2048
LLC ways: 16
Off-chip DRAM Size: 4096 MB Channels: 1 Width: 64-bit Data Rate: 3200 MT/s

CPU 0 runs /home/tapatil/CSE240C/SA1/ChampSim-master/ipc1_public/server_009.champsimtrace.xz
CPU 0 EPI prefetcher
CPU 0 L1D next line prefetcher
Heartbeat CPU 0 instructions: 10000003 cycles: 3199991 heartbeat IPC: 3.12501 cumulative IPC: 3.12501 (Simulation time: 0 hr 0 min 31 sec) 
Heartbeat CPU 0 instructions: 20000001 cycles: 6392642 heartbeat IPC: 3.13219 cumulative IPC: 3.1286 (Simulation time: 0 hr 1 min 2 sec) 
Heartbeat CPU 0 instructions: 30000002 cycles: 9599794 heartbeat IPC: 3.11803 cumulative IPC: 3.12507 (Simulation time: 0 hr 1 min 32 sec) 
Heartbeat CPU 0 instructions: 40000003 cycles: 12803650 heartbeat IPC: 3.12124 cumulative IPC: 3.12411 (Simulation time: 0 hr 2 min 3 sec) 
Heartbeat CPU 0 instructions: 50000000 cycles: 16064178 heartbeat IPC: 3.06699 cumulative IPC: 3.11252 (Simulation time: 0 hr 2 min 36 sec) 

Warmup complete CPU 0 instructions: 50000004 cycles: 16064179 (Simulation time: 0 hr 2 min 36 sec) 

Heartbeat CPU 0 instructions: 60000002 cycles: 31613194 heartbeat IPC: 0.643128 cumulative IPC: 0.643127 (Simulation time: 0 hr 3 min 19 sec) 
Heartbeat CPU 0 instructions: 70000003 cycles: 52560166 heartbeat IPC: 0.477396 cumulative IPC: 0.548005 (Simulation time: 0 hr 4 min 13 sec) 
Heartbeat CPU 0 instructions: 80000000 cycles: 59576334 heartbeat IPC: 1.42528 cumulative IPC: 0.689462 (Simulation time: 0 hr 4 min 44 sec) 
Heartbeat CPU 0 instructions: 90000001 cycles: 66737604 heartbeat IPC: 1.3964 cumulative IPC: 0.789368 (Simulation time: 0 hr 5 min 14 sec) 
Heartbeat CPU 0 instructions: 100000003 cycles: 73772152 heartbeat IPC: 1.42156 cumulative IPC: 0.866431 (Simulation time: 0 hr 5 min 46 sec) 
Finished CPU 0 instructions: 50000003 cycles: 57707974 cumulative IPC: 0.866431 (Simulation time: 0 hr 5 min 46 sec) 

ChampSim completed all CPUs

Region of Interest Statistics

CPU 0 cumulative IPC: 0.866431 instructions: 50000003 cycles: 57707974
L1D TOTAL     ACCESS:   21584894  HIT:   17005392  MISS:    4579502
L1D LOAD      ACCESS:    8609224  HIT:    6328500  MISS:    2280724
L1D RFO       ACCESS:    4579392  HIT:    4475030  MISS:     104362
L1D PREFETCH  ACCESS:    8396278  HIT:    6201862  MISS:    2194416
L1D WRITEBACK ACCESS:          0  HIT:          0  MISS:          0
L1D PREFETCH  REQUESTED:    8641509  ISSUED:    8544589  USEFUL:     105934  USELESS:    2088480
L1D AVERAGE MISS LATENCY: 20.323 cycles
L1I TOTAL     ACCESS:   42640794  HIT:   41166152  MISS:    1474642
L1I LOAD      ACCESS:   10772001  HIT:   10727280  MISS:      44721
L1I RFO       ACCESS:          0  HIT:          0  MISS:          0
L1I PREFETCH  ACCESS:   31868793  HIT:   30438872  MISS:    1429921
L1I WRITEBACK ACCESS:          0  HIT:          0  MISS:          0
L1I PREFETCH  REQUESTED:   44871259  ISSUED:   44871259  USEFUL:    1053940  USELESS:     376041
L1I AVERAGE MISS LATENCY: 33.4513 cycles
L2C TOTAL     ACCESS:    7798961  HIT:    6752915  MISS:    1046046
L2C LOAD      ACCESS:    2283816  HIT:    2074718  MISS:     209098
L2C RFO       ACCESS:     103454  HIT:      63797  MISS:      39657
L2C PREFETCH  ACCESS:    5154830  HIT:    4358834  MISS:     795996
L2C WRITEBACK ACCESS:     256861  HIT:     255566  MISS:       1295
L2C PREFETCH  REQUESTED:    7923871  ISSUED:    7918768  USEFUL:      20550  USELESS:     774055
L2C AVERAGE MISS LATENCY: 48.3612 cycles
LLC TOTAL     ACCESS:    2333372  HIT:    2198609  MISS:     134763
LLC LOAD      ACCESS:     208818  HIT:     190299  MISS:      18519
LLC RFO       ACCESS:      39653  HIT:      30795  MISS:       8858
LLC PREFETCH  ACCESS:    1948229  HIT:    1841067  MISS:     107162
LLC WRITEBACK ACCESS:     136672  HIT:     136448  MISS:        224
LLC PREFETCH  REQUESTED:          0  ISSUED:          0  USEFUL:       9773  USELESS:      94302
LLC AVERAGE MISS LATENCY: 176.336 cycles
Major fault: 0 Minor fault: 6362
CPU 0 L1I EPI prefetcher final stats
CPU 0 L1D next line prefetcher final stats

DRAM Statistics
 CHANNEL 0
 RQ ROW_BUFFER_HIT:      26383  ROW_BUFFER_MISS:     108142
 DBUS_CONGESTED:      61871
 WQ ROW_BUFFER_HIT:       8611  ROW_BUFFER_MISS:      37959  FULL:          0

 AVG_CONGESTED_CYCLE: 5

CPU 0 Branch Prediction Accuracy: 99.4713% MPKI: 1.11484 Average ROB Occupancy at Mispredict: 122.366

Branch types
NOT_BRANCH: 39456615 78.9132%
BRANCH_DIRECT_JUMP: 445350 0.8907%
BRANCH_INDIRECT: 131149 0.262298%
BRANCH_CONDITIONAL: 8130196 16.2604%
BRANCH_DIRECT_CALL: 732485 1.46497%
BRANCH_INDIRECT_CALL: 172369 0.344738%
BRANCH_RETURN: 931558 1.86312%
BRANCH_OTHER: 0 0%

