Initialize SIGNATURE TABLE
ST_SET: 1
ST_WAY: 256
ST_TAG_BIT: 16
ST_TAG_MASK: ffff

Initialize PATTERN TABLE
PT_SET: 512
PT_WAY: 4
SIG_DELTA_BIT: 7
C_SIG_BIT: 4
C_DELTA_BIT: 4

Initialize PREFETCH FILTER
FILTER_SET: 1024

*** ChampSim Multicore Out-of-Order Simulator ***

Warmup Instructions: 50000000
Simulation Instructions: 50000000
Number of CPUs: 1
LLC sets: 2048
LLC ways: 16
Off-chip DRAM Size: 4096 MB Channels: 1 Width: 64-bit Data Rate: 3200 MT/s

CPU 0 runs /home/tapatil/CSE240C/SA1/ChampSim-master/ipc1_public/server_020.champsimtrace.xz
CPU 0 EPI prefetcher
CPU 0 L1D next line prefetcher
Heartbeat CPU 0 instructions: 10000003 cycles: 3621293 heartbeat IPC: 2.76145 cumulative IPC: 2.76145 (Simulation time: 0 hr 0 min 35 sec) 
Heartbeat CPU 0 instructions: 20000002 cycles: 7246692 heartbeat IPC: 2.75832 cumulative IPC: 2.75988 (Simulation time: 0 hr 1 min 11 sec) 
Heartbeat CPU 0 instructions: 30000001 cycles: 10865503 heartbeat IPC: 2.76334 cumulative IPC: 2.76103 (Simulation time: 0 hr 1 min 48 sec) 
Heartbeat CPU 0 instructions: 40000002 cycles: 14485547 heartbeat IPC: 2.7624 cumulative IPC: 2.76137 (Simulation time: 0 hr 2 min 24 sec) 
Heartbeat CPU 0 instructions: 50000001 cycles: 18118620 heartbeat IPC: 2.75249 cumulative IPC: 2.75959 (Simulation time: 0 hr 3 min 0 sec) 

Warmup complete CPU 0 instructions: 50000001 cycles: 18118620 (Simulation time: 0 hr 3 min 0 sec) 

Heartbeat CPU 0 instructions: 60000003 cycles: 35710547 heartbeat IPC: 0.568443 cumulative IPC: 0.568443 (Simulation time: 0 hr 3 min 48 sec) 
Heartbeat CPU 0 instructions: 70000001 cycles: 53307293 heartbeat IPC: 0.568287 cumulative IPC: 0.568365 (Simulation time: 0 hr 4 min 37 sec) 
Heartbeat CPU 0 instructions: 80000002 cycles: 70653174 heartbeat IPC: 0.576506 cumulative IPC: 0.571053 (Simulation time: 0 hr 5 min 26 sec) 
Heartbeat CPU 0 instructions: 90000001 cycles: 88130936 heartbeat IPC: 0.572156 cumulative IPC: 0.571328 (Simulation time: 0 hr 6 min 16 sec) 
Heartbeat CPU 0 instructions: 100000002 cycles: 105588314 heartbeat IPC: 0.572824 cumulative IPC: 0.571627 (Simulation time: 0 hr 7 min 7 sec) 
Finished CPU 0 instructions: 50000001 cycles: 87469694 cumulative IPC: 0.571627 (Simulation time: 0 hr 7 min 7 sec) 

ChampSim completed all CPUs

Region of Interest Statistics

CPU 0 cumulative IPC: 0.571627 instructions: 50000001 cycles: 87469694
L1D TOTAL     ACCESS:   18631232  HIT:   16427007  MISS:    2204225
L1D LOAD      ACCESS:    7044801  HIT:    6322876  MISS:     721925
L1D RFO       ACCESS:    5812097  HIT:    4866128  MISS:     945969
L1D PREFETCH  ACCESS:    5774334  HIT:    5238003  MISS:     536331
L1D WRITEBACK ACCESS:          0  HIT:          0  MISS:          0
L1D PREFETCH  REQUESTED:    7085957  ISSUED:    6884236  USEFUL:     197043  USELESS:     339207
L1D AVERAGE MISS LATENCY: 175.464 cycles
L1I TOTAL     ACCESS:   32982077  HIT:   30529872  MISS:    2452205
L1I LOAD      ACCESS:   10095752  HIT:   10075921  MISS:      19831
L1I RFO       ACCESS:          0  HIT:          0  MISS:          0
L1I PREFETCH  ACCESS:   22886325  HIT:   20453951  MISS:    2432374
L1I WRITEBACK ACCESS:          0  HIT:          0  MISS:          0
L1I PREFETCH  REQUESTED:   27254559  ISSUED:   27254559  USEFUL:    2267197  USELESS:     165172
L1I AVERAGE MISS LATENCY: 19.2709 cycles
L2C TOTAL     ACCESS:    6911720  HIT:    5056082  MISS:    1855638
L2C LOAD      ACCESS:     509240  HIT:     244241  MISS:     264999
L2C RFO       ACCESS:     945478  HIT:      20035  MISS:     925443
L2C PREFETCH  ACCESS:    4293422  HIT:    3630643  MISS:     662779
L2C WRITEBACK ACCESS:    1163580  HIT:    1161163  MISS:       2417
L2C PREFETCH  REQUESTED:    4019966  ISSUED:    4014178  USEFUL:      22148  USELESS:     639475
L2C AVERAGE MISS LATENCY: 214.244 cycles
LLC TOTAL     ACCESS:    3985234  HIT:    2555021  MISS:    1430213
LLC LOAD      ACCESS:     264937  HIT:     165165  MISS:      99772
LLC RFO       ACCESS:     925432  HIT:     139160  MISS:     786272
LLC PREFETCH  ACCESS:    1697193  HIT:    1154964  MISS:     542229
LLC WRITEBACK ACCESS:    1097672  HIT:    1095732  MISS:       1940
LLC PREFETCH  REQUESTED:          0  ISSUED:          0  USEFUL:      31276  USELESS:     511595
LLC AVERAGE MISS LATENCY: 279.59 cycles
Major fault: 0 Minor fault: 22092
CPU 0 L1I EPI prefetcher final stats
CPU 0 L1D next line prefetcher final stats

DRAM Statistics
 CHANNEL 0
 RQ ROW_BUFFER_HIT:     401096  ROW_BUFFER_MISS:    1026913
 DBUS_CONGESTED:    1427993
 WQ ROW_BUFFER_HIT:     261811  ROW_BUFFER_MISS:     625890  FULL:          0

 AVG_CONGESTED_CYCLE: 6

CPU 0 Branch Prediction Accuracy: 99.712% MPKI: 0.47638 Average ROB Occupancy at Mispredict: 215.744

Branch types
NOT_BRANCH: 41729622 83.4592%
BRANCH_DIRECT_JUMP: 458222 0.916444%
BRANCH_INDIRECT: 49088 0.098176%
BRANCH_CONDITIONAL: 5938544 11.8771%
BRANCH_DIRECT_CALL: 745133 1.49027%
BRANCH_INDIRECT_CALL: 167110 0.33422%
BRANCH_RETURN: 912224 1.82445%
BRANCH_OTHER: 0 0%

