Initialize SIGNATURE TABLE
ST_SET: 1
ST_WAY: 256
ST_TAG_BIT: 16
ST_TAG_MASK: ffff

Initialize PATTERN TABLE
PT_SET: 512
PT_WAY: 4
SIG_DELTA_BIT: 7
C_SIG_BIT: 4
C_DELTA_BIT: 4

Initialize PREFETCH FILTER
FILTER_SET: 1024

*** ChampSim Multicore Out-of-Order Simulator ***

Warmup Instructions: 50000000
Simulation Instructions: 50000000
Number of CPUs: 1
LLC sets: 2048
LLC ways: 16
Off-chip DRAM Size: 4096 MB Channels: 1 Width: 64-bit Data Rate: 3200 MT/s

CPU 0 runs /home/tapatil/CSE240C/SA1/ChampSim-master/ipc1_public/server_015.champsimtrace.xz
CPU 0 EPI prefetcher
CPU 0 L1D next line prefetcher
Heartbeat CPU 0 instructions: 10000002 cycles: 3519396 heartbeat IPC: 2.8414 cumulative IPC: 2.8414 (Simulation time: 0 hr 0 min 33 sec) 
Heartbeat CPU 0 instructions: 20000001 cycles: 7107140 heartbeat IPC: 2.78727 cumulative IPC: 2.81407 (Simulation time: 0 hr 1 min 7 sec) 
Heartbeat CPU 0 instructions: 30000001 cycles: 10646125 heartbeat IPC: 2.82567 cumulative IPC: 2.81793 (Simulation time: 0 hr 1 min 42 sec) 
Heartbeat CPU 0 instructions: 40000002 cycles: 14194166 heartbeat IPC: 2.81846 cumulative IPC: 2.81806 (Simulation time: 0 hr 2 min 18 sec) 
Heartbeat CPU 0 instructions: 50000002 cycles: 17742426 heartbeat IPC: 2.81828 cumulative IPC: 2.8181 (Simulation time: 0 hr 2 min 55 sec) 

Warmup complete CPU 0 instructions: 50000002 cycles: 17742426 (Simulation time: 0 hr 2 min 55 sec) 

Heartbeat CPU 0 instructions: 60000002 cycles: 24039682 heartbeat IPC: 1.58799 cumulative IPC: 1.58799 (Simulation time: 0 hr 3 min 31 sec) 
Heartbeat CPU 0 instructions: 70000003 cycles: 30348629 heartbeat IPC: 1.58505 cumulative IPC: 1.58652 (Simulation time: 0 hr 4 min 7 sec) 
Heartbeat CPU 0 instructions: 80000000 cycles: 36657612 heartbeat IPC: 1.58504 cumulative IPC: 1.58603 (Simulation time: 0 hr 4 min 43 sec) 
Heartbeat CPU 0 instructions: 90000000 cycles: 42969057 heartbeat IPC: 1.58442 cumulative IPC: 1.58563 (Simulation time: 0 hr 5 min 20 sec) 
Heartbeat CPU 0 instructions: 100000002 cycles: 49278394 heartbeat IPC: 1.58495 cumulative IPC: 1.58549 (Simulation time: 0 hr 5 min 56 sec) 
Finished CPU 0 instructions: 50000000 cycles: 31535968 cumulative IPC: 1.58549 (Simulation time: 0 hr 5 min 56 sec) 

ChampSim completed all CPUs

Region of Interest Statistics

CPU 0 cumulative IPC: 1.58549 instructions: 50000000 cycles: 31535968
L1D TOTAL     ACCESS:   21824724  HIT:   21807957  MISS:      16767
L1D LOAD      ACCESS:    6689521  HIT:    6688990  MISS:        531
L1D RFO       ACCESS:    8561372  HIT:    8561276  MISS:         96
L1D PREFETCH  ACCESS:    6573831  HIT:    6557691  MISS:      16140
L1D WRITEBACK ACCESS:          0  HIT:          0  MISS:          0
L1D PREFETCH  REQUESTED:    6689582  ISSUED:    6578242  USEFUL:         83  USELESS:      16054
L1D AVERAGE MISS LATENCY: 16.3682 cycles
L1I TOTAL     ACCESS:   39767223  HIT:   37397477  MISS:    2369746
L1I LOAD      ACCESS:    9793172  HIT:    9760796  MISS:      32376
L1I RFO       ACCESS:          0  HIT:          0  MISS:          0
L1I PREFETCH  ACCESS:   29974051  HIT:   27636681  MISS:    2337370
L1I WRITEBACK ACCESS:          0  HIT:          0  MISS:          0
L1I PREFETCH  REQUESTED:   35625848  ISSUED:   35625848  USEFUL:    1883312  USELESS:     454084
L1I AVERAGE MISS LATENCY: 14.3677 cycles
L2C TOTAL     ACCESS:    3259396  HIT:    3259136  MISS:        260
L2C LOAD      ACCESS:      19580  HIT:      19521  MISS:         59
L2C RFO       ACCESS:         94  HIT:         92  MISS:          2
L2C PREFETCH  ACCESS:    3239373  HIT:    3239175  MISS:        198
L2C WRITEBACK ACCESS:        349  HIT:        348  MISS:          1
L2C PREFETCH  REQUESTED:    1958946  ISSUED:    1958937  USEFUL:         95  USELESS:        115
L2C AVERAGE MISS LATENCY: 112.431 cycles
LLC TOTAL     ACCESS:     235646  HIT:     235079  MISS:        567
LLC LOAD      ACCESS:         59  HIT:         42  MISS:         17
LLC RFO       ACCESS:          2  HIT:          0  MISS:          2
LLC PREFETCH  ACCESS:     235520  HIT:     234975  MISS:        545
LLC WRITEBACK ACCESS:         65  HIT:         62  MISS:          3
LLC PREFETCH  REQUESTED:          0  ISSUED:          0  USEFUL:          5  USELESS:        132
LLC AVERAGE MISS LATENCY: 346.603 cycles
Major fault: 0 Minor fault: 1888
CPU 0 L1I EPI prefetcher final stats
CPU 0 L1D next line prefetcher final stats

DRAM Statistics
 CHANNEL 0
 RQ ROW_BUFFER_HIT:        111  ROW_BUFFER_MISS:        453
 DBUS_CONGESTED:        374
 WQ ROW_BUFFER_HIT:         49  ROW_BUFFER_MISS:        328  FULL:          0

 AVG_CONGESTED_CYCLE: 6

CPU 0 Branch Prediction Accuracy: 99.9085% MPKI: 0.15428 Average ROB Occupancy at Mispredict: 295.327

Branch types
NOT_BRANCH: 41573156 83.1463%
BRANCH_DIRECT_JUMP: 436254 0.872508%
BRANCH_INDIRECT: 0 0%
BRANCH_CONDITIONAL: 5395898 10.7918%
BRANCH_DIRECT_CALL: 1173391 2.34678%
BRANCH_INDIRECT_CALL: 123912 0.247824%
BRANCH_RETURN: 1297311 2.59462%
BRANCH_OTHER: 0 0%

