Initialize SIGNATURE TABLE
ST_SET: 1
ST_WAY: 256
ST_TAG_BIT: 16
ST_TAG_MASK: ffff

Initialize PATTERN TABLE
PT_SET: 512
PT_WAY: 4
SIG_DELTA_BIT: 7
C_SIG_BIT: 4
C_DELTA_BIT: 4

Initialize PREFETCH FILTER
FILTER_SET: 1024

*** ChampSim Multicore Out-of-Order Simulator ***

Warmup Instructions: 50000000
Simulation Instructions: 50000000
Number of CPUs: 1
LLC sets: 2048
LLC ways: 16
Off-chip DRAM Size: 4096 MB Channels: 1 Width: 64-bit Data Rate: 3200 MT/s

CPU 0 runs /home/tapatil/CSE240C/SA1/ChampSim-master/ipc1_public/server_029.champsimtrace.xz
CPU 0 EPI prefetcher
CPU 0 L1D next line prefetcher
Heartbeat CPU 0 instructions: 10000001 cycles: 3488144 heartbeat IPC: 2.86685 cumulative IPC: 2.86685 (Simulation time: 0 hr 0 min 34 sec) 
Heartbeat CPU 0 instructions: 20000002 cycles: 6977480 heartbeat IPC: 2.86588 cumulative IPC: 2.86636 (Simulation time: 0 hr 1 min 8 sec) 
Heartbeat CPU 0 instructions: 30000003 cycles: 10468648 heartbeat IPC: 2.86437 cumulative IPC: 2.8657 (Simulation time: 0 hr 1 min 43 sec) 
Heartbeat CPU 0 instructions: 40000000 cycles: 13966463 heartbeat IPC: 2.85893 cumulative IPC: 2.864 (Simulation time: 0 hr 2 min 17 sec) 
Heartbeat CPU 0 instructions: 50000000 cycles: 17463445 heartbeat IPC: 2.85961 cumulative IPC: 2.86312 (Simulation time: 0 hr 2 min 52 sec) 

Warmup complete CPU 0 instructions: 50000004 cycles: 17463446 (Simulation time: 0 hr 2 min 52 sec) 

Heartbeat CPU 0 instructions: 60000000 cycles: 24953197 heartbeat IPC: 1.33516 cumulative IPC: 1.33516 (Simulation time: 0 hr 3 min 30 sec) 
Heartbeat CPU 0 instructions: 70000003 cycles: 32589956 heartbeat IPC: 1.30946 cumulative IPC: 1.32218 (Simulation time: 0 hr 4 min 8 sec) 
Heartbeat CPU 0 instructions: 80000002 cycles: 40050003 heartbeat IPC: 1.34047 cumulative IPC: 1.32822 (Simulation time: 0 hr 4 min 46 sec) 
*** Reached end of trace for Core: 0 Repeating trace: /home/tapatil/CSE240C/SA1/ChampSim-master/ipc1_public/server_029.champsimtrace.xz
Heartbeat CPU 0 instructions: 90000000 cycles: 47414240 heartbeat IPC: 1.35791 cumulative IPC: 1.33552 (Simulation time: 0 hr 5 min 24 sec) 
Heartbeat CPU 0 instructions: 100000003 cycles: 54772088 heartbeat IPC: 1.35909 cumulative IPC: 1.34017 (Simulation time: 0 hr 6 min 2 sec) 
Finished CPU 0 instructions: 50000003 cycles: 37308643 cumulative IPC: 1.34017 (Simulation time: 0 hr 6 min 2 sec) 

ChampSim completed all CPUs

Region of Interest Statistics

CPU 0 cumulative IPC: 1.34017 instructions: 50000003 cycles: 37308643
L1D TOTAL     ACCESS:   19045645  HIT:   16949411  MISS:    2096234
L1D LOAD      ACCESS:    6726028  HIT:    5659628  MISS:    1066400
L1D RFO       ACCESS:    6112214  HIT:    5826762  MISS:     285452
L1D PREFETCH  ACCESS:    6207403  HIT:    5463021  MISS:     744382
L1D WRITEBACK ACCESS:          0  HIT:          0  MISS:          0
L1D PREFETCH  REQUESTED:    6786774  ISSUED:    6678881  USEFUL:     174453  USELESS:     569918
L1D AVERAGE MISS LATENCY: 21.0467 cycles
L1I TOTAL     ACCESS:   29518023  HIT:   26014785  MISS:    3503238
L1I LOAD      ACCESS:    9810176  HIT:    9775687  MISS:      34489
L1I RFO       ACCESS:          0  HIT:          0  MISS:          0
L1I PREFETCH  ACCESS:   19707847  HIT:   16239098  MISS:    3468749
L1I WRITEBACK ACCESS:          0  HIT:          0  MISS:          0
L1I PREFETCH  REQUESTED:   24682336  ISSUED:   24682336  USEFUL:    2930381  USELESS:     538403
L1I AVERAGE MISS LATENCY: 18.1701 cycles
L2C TOTAL     ACCESS:    7927663  HIT:    7293421  MISS:     634242
L2C LOAD      ACCESS:     924032  HIT:     793929  MISS:     130103
L2C RFO       ACCESS:     283548  HIT:     237938  MISS:      45610
L2C PREFETCH  ACCESS:    6109565  HIT:    5652362  MISS:     457203
L2C WRITEBACK ACCESS:     610518  HIT:     609192  MISS:       1326
L2C PREFETCH  REQUESTED:    7105224  ISSUED:    7074204  USEFUL:      10767  USELESS:     445604
L2C AVERAGE MISS LATENCY: 43.5344 cycles
LLC TOTAL     ACCESS:    2553405  HIT:    2475711  MISS:      77694
LLC LOAD      ACCESS:     130017  HIT:     112995  MISS:      17022
LLC RFO       ACCESS:      45607  HIT:      41954  MISS:       3653
LLC PREFETCH  ACCESS:    2282125  HIT:    2225748  MISS:      56377
LLC WRITEBACK ACCESS:      95656  HIT:      95014  MISS:        642
LLC PREFETCH  REQUESTED:          0  ISSUED:          0  USEFUL:       2505  USELESS:      53830
LLC AVERAGE MISS LATENCY: 160.212 cycles
Major fault: 0 Minor fault: 5920
CPU 0 L1I EPI prefetcher final stats
CPU 0 L1D next line prefetcher final stats

DRAM Statistics
 CHANNEL 0
 RQ ROW_BUFFER_HIT:      23112  ROW_BUFFER_MISS:      53932
 DBUS_CONGESTED:      30054
 WQ ROW_BUFFER_HIT:        640  ROW_BUFFER_MISS:       4139  FULL:          0

 AVG_CONGESTED_CYCLE: 4

CPU 0 Branch Prediction Accuracy: 99.7245% MPKI: 0.51862 Average ROB Occupancy at Mispredict: 147.466

Branch types
NOT_BRANCH: 40586622 81.1732%
BRANCH_DIRECT_JUMP: 525211 1.05042%
BRANCH_INDIRECT: 166359 0.332718%
BRANCH_CONDITIONAL: 6373091 12.7462%
BRANCH_DIRECT_CALL: 989263 1.97853%
BRANCH_INDIRECT_CALL: 184984 0.369968%
BRANCH_RETURN: 1174250 2.3485%
BRANCH_OTHER: 0 0%

