Initialize SIGNATURE TABLE
ST_SET: 1
ST_WAY: 256
ST_TAG_BIT: 16
ST_TAG_MASK: ffff

Initialize PATTERN TABLE
PT_SET: 512
PT_WAY: 4
SIG_DELTA_BIT: 7
C_SIG_BIT: 4
C_DELTA_BIT: 4

Initialize PREFETCH FILTER
FILTER_SET: 1024

*** ChampSim Multicore Out-of-Order Simulator ***

Warmup Instructions: 50000000
Simulation Instructions: 50000000
Number of CPUs: 1
LLC sets: 2048
LLC ways: 16
Off-chip DRAM Size: 4096 MB Channels: 1 Width: 64-bit Data Rate: 3200 MT/s

CPU 0 runs /home/tapatil/CSE240C/SA1/ChampSim-master/ipc1_public/server_022.champsimtrace.xz
CPU 0 EPI prefetcher
CPU 0 L1D next line prefetcher
Heartbeat CPU 0 instructions: 10000002 cycles: 3623194 heartbeat IPC: 2.76 cumulative IPC: 2.76 (Simulation time: 0 hr 0 min 35 sec) 
Heartbeat CPU 0 instructions: 20000001 cycles: 7253035 heartbeat IPC: 2.75494 cumulative IPC: 2.75747 (Simulation time: 0 hr 1 min 10 sec) 
Heartbeat CPU 0 instructions: 30000003 cycles: 10876592 heartbeat IPC: 2.75972 cumulative IPC: 2.75822 (Simulation time: 0 hr 1 min 46 sec) 
Heartbeat CPU 0 instructions: 40000003 cycles: 14506885 heartbeat IPC: 2.7546 cumulative IPC: 2.75731 (Simulation time: 0 hr 2 min 21 sec) 
Heartbeat CPU 0 instructions: 50000002 cycles: 18127197 heartbeat IPC: 2.76219 cumulative IPC: 2.75829 (Simulation time: 0 hr 2 min 57 sec) 

Warmup complete CPU 0 instructions: 50000002 cycles: 18127197 (Simulation time: 0 hr 2 min 57 sec) 

Heartbeat CPU 0 instructions: 60000000 cycles: 34898637 heartbeat IPC: 0.596252 cumulative IPC: 0.596252 (Simulation time: 0 hr 3 min 44 sec) 
Heartbeat CPU 0 instructions: 70000001 cycles: 51916388 heartbeat IPC: 0.587622 cumulative IPC: 0.591905 (Simulation time: 0 hr 4 min 32 sec) 
Heartbeat CPU 0 instructions: 80000001 cycles: 68714316 heartbeat IPC: 0.595312 cumulative IPC: 0.593036 (Simulation time: 0 hr 5 min 20 sec) 
Heartbeat CPU 0 instructions: 90000003 cycles: 85869435 heartbeat IPC: 0.582916 cumulative IPC: 0.590474 (Simulation time: 0 hr 6 min 9 sec) 
Heartbeat CPU 0 instructions: 100000003 cycles: 102634202 heartbeat IPC: 0.596489 cumulative IPC: 0.591667 (Simulation time: 0 hr 7 min 0 sec) 
Finished CPU 0 instructions: 50000001 cycles: 84507005 cumulative IPC: 0.591667 (Simulation time: 0 hr 7 min 0 sec) 

ChampSim completed all CPUs

Region of Interest Statistics

CPU 0 cumulative IPC: 0.591667 instructions: 50000001 cycles: 84507005
L1D TOTAL     ACCESS:   18691622  HIT:   16480830  MISS:    2210792
L1D LOAD      ACCESS:    7049966  HIT:    6340310  MISS:     709656
L1D RFO       ACCESS:    5894752  HIT:    4915199  MISS:     979553
L1D PREFETCH  ACCESS:    5746904  HIT:    5225321  MISS:     521583
L1D WRITEBACK ACCESS:          0  HIT:          0  MISS:          0
L1D PREFETCH  REQUESTED:    7092097  ISSUED:    6883717  USEFUL:     200361  USELESS:     321227
L1D AVERAGE MISS LATENCY: 178.963 cycles
L1I TOTAL     ACCESS:   33576734  HIT:   31013420  MISS:    2563314
L1I LOAD      ACCESS:   10124375  HIT:   10107055  MISS:      17320
L1I RFO       ACCESS:          0  HIT:          0  MISS:          0
L1I PREFETCH  ACCESS:   23452359  HIT:   20906365  MISS:    2545994
L1I WRITEBACK ACCESS:          0  HIT:          0  MISS:          0
L1I PREFETCH  REQUESTED:   28234635  ISSUED:   28234635  USEFUL:    2343216  USELESS:     202793
L1I AVERAGE MISS LATENCY: 18.7521 cycles
L2C TOTAL     ACCESS:    7089858  HIT:    5226522  MISS:    1863336
L2C LOAD      ACCESS:     487743  HIT:     243880  MISS:     243863
L2C RFO       ACCESS:     978969  HIT:      20283  MISS:     958686
L2C PREFETCH  ACCESS:    4437989  HIT:    3779431  MISS:     658558
L2C WRITEBACK ACCESS:    1185157  HIT:    1182928  MISS:       2229
L2C PREFETCH  REQUESTED:    4065438  ISSUED:    4060162  USEFUL:      20814  USELESS:     637701
L2C AVERAGE MISS LATENCY: 218.689 cycles
LLC TOTAL     ACCESS:    4005353  HIT:    2621885  MISS:    1383468
LLC LOAD      ACCESS:     243686  HIT:     170990  MISS:      72696
LLC RFO       ACCESS:     958663  HIT:     143052  MISS:     815611
LLC PREFETCH  ACCESS:    1685614  HIT:    1192535  MISS:     493079
LLC WRITEBACK ACCESS:    1117390  HIT:    1115308  MISS:       2082
LLC PREFETCH  REQUESTED:          0  ISSUED:          0  USEFUL:      28268  USELESS:     465184
LLC AVERAGE MISS LATENCY: 291.089 cycles
Major fault: 0 Minor fault: 23507
CPU 0 L1I EPI prefetcher final stats
CPU 0 L1D next line prefetcher final stats

DRAM Statistics
 CHANNEL 0
 RQ ROW_BUFFER_HIT:     397742  ROW_BUFFER_MISS:     983392
 DBUS_CONGESTED:    1427215
 WQ ROW_BUFFER_HIT:     273766  ROW_BUFFER_MISS:     627001  FULL:          0

 AVG_CONGESTED_CYCLE: 6

CPU 0 Branch Prediction Accuracy: 99.8317% MPKI: 0.27564 Average ROB Occupancy at Mispredict: 223.982

Branch types
NOT_BRANCH: 41811174 83.6223%
BRANCH_DIRECT_JUMP: 445742 0.891484%
BRANCH_INDIRECT: 48876 0.097752%
BRANCH_CONDITIONAL: 5859410 11.7188%
BRANCH_DIRECT_CALL: 758268 1.51654%
BRANCH_INDIRECT_CALL: 159103 0.318206%
BRANCH_RETURN: 917373 1.83475%
BRANCH_OTHER: 0 0%

