Initialize SIGNATURE TABLE
ST_SET: 1
ST_WAY: 256
ST_TAG_BIT: 16
ST_TAG_MASK: ffff

Initialize PATTERN TABLE
PT_SET: 512
PT_WAY: 4
SIG_DELTA_BIT: 7
C_SIG_BIT: 4
C_DELTA_BIT: 4

Initialize PREFETCH FILTER
FILTER_SET: 1024

*** ChampSim Multicore Out-of-Order Simulator ***

Warmup Instructions: 50000000
Simulation Instructions: 50000000
Number of CPUs: 1
LLC sets: 2048
LLC ways: 16
Off-chip DRAM Size: 4096 MB Channels: 1 Width: 64-bit Data Rate: 3200 MT/s

CPU 0 runs /home/tapatil/CSE240C/SA1/ChampSim-master/ipc1_public/server_026.champsimtrace.xz
CPU 0 EPI prefetcher
CPU 0 L1D next line prefetcher
Heartbeat CPU 0 instructions: 10000000 cycles: 3523990 heartbeat IPC: 2.83769 cumulative IPC: 2.83769 (Simulation time: 0 hr 0 min 35 sec) 
Heartbeat CPU 0 instructions: 20000002 cycles: 7052741 heartbeat IPC: 2.83386 cumulative IPC: 2.83578 (Simulation time: 0 hr 1 min 10 sec) 
Heartbeat CPU 0 instructions: 30000000 cycles: 10572126 heartbeat IPC: 2.8414 cumulative IPC: 2.83765 (Simulation time: 0 hr 1 min 45 sec) 
Heartbeat CPU 0 instructions: 40000003 cycles: 14099638 heartbeat IPC: 2.83486 cumulative IPC: 2.83695 (Simulation time: 0 hr 2 min 19 sec) 
Heartbeat CPU 0 instructions: 50000000 cycles: 17621190 heartbeat IPC: 2.83966 cumulative IPC: 2.83749 (Simulation time: 0 hr 2 min 54 sec) 

Warmup complete CPU 0 instructions: 50000004 cycles: 17621191 (Simulation time: 0 hr 2 min 54 sec) 

*** Reached end of trace for Core: 0 Repeating trace: /home/tapatil/CSE240C/SA1/ChampSim-master/ipc1_public/server_026.champsimtrace.xz
Heartbeat CPU 0 instructions: 60000000 cycles: 24533929 heartbeat IPC: 1.4466 cumulative IPC: 1.4466 (Simulation time: 0 hr 3 min 31 sec) 
Heartbeat CPU 0 instructions: 70000003 cycles: 31339836 heartbeat IPC: 1.46931 cumulative IPC: 1.45787 (Simulation time: 0 hr 4 min 9 sec) 
Heartbeat CPU 0 instructions: 80000002 cycles: 38242518 heartbeat IPC: 1.44871 cumulative IPC: 1.4548 (Simulation time: 0 hr 4 min 45 sec) 
Heartbeat CPU 0 instructions: 90000002 cycles: 45049262 heartbeat IPC: 1.46913 cumulative IPC: 1.45836 (Simulation time: 0 hr 5 min 21 sec) 
Heartbeat CPU 0 instructions: 100000000 cycles: 51939083 heartbeat IPC: 1.45142 cumulative IPC: 1.45697 (Simulation time: 0 hr 5 min 59 sec) 
Finished CPU 0 instructions: 50000000 cycles: 34317893 cumulative IPC: 1.45697 (Simulation time: 0 hr 5 min 59 sec) 

ChampSim completed all CPUs

Region of Interest Statistics

CPU 0 cumulative IPC: 1.45697 instructions: 50000000 cycles: 34317893
L1D TOTAL     ACCESS:   19763173  HIT:   18118019  MISS:    1645154
L1D LOAD      ACCESS:    6927975  HIT:    6198363  MISS:     729612
L1D RFO       ACCESS:    6244317  HIT:    5957464  MISS:     286853
L1D PREFETCH  ACCESS:    6590881  HIT:    5962192  MISS:     628689
L1D WRITEBACK ACCESS:          0  HIT:          0  MISS:          0
L1D PREFETCH  REQUESTED:    6975570  ISSUED:    6832501  USEFUL:     150844  USELESS:     477856
L1D AVERAGE MISS LATENCY: 24.1066 cycles
L1I TOTAL     ACCESS:   28622009  HIT:   25206269  MISS:    3415740
L1I LOAD      ACCESS:    9492881  HIT:    9430453  MISS:      62428
L1I RFO       ACCESS:          0  HIT:          0  MISS:          0
L1I PREFETCH  ACCESS:   19129128  HIT:   15775816  MISS:    3353312
L1I WRITEBACK ACCESS:          0  HIT:          0  MISS:          0
L1I PREFETCH  REQUESTED:   24180631  ISSUED:   24180631  USEFUL:    2740368  USELESS:     613013
L1I AVERAGE MISS LATENCY: 18.8562 cycles
L2C TOTAL     ACCESS:    6967127  HIT:    6173413  MISS:     793714
L2C LOAD      ACCESS:     711884  HIT:     567011  MISS:     144873
L2C RFO       ACCESS:     284687  HIT:     188944  MISS:      95743
L2C PREFETCH  ACCESS:    5409392  HIT:    4860601  MISS:     548791
L2C WRITEBACK ACCESS:     561164  HIT:     556857  MISS:       4307
L2C PREFETCH  REQUESTED:    6098069  ISSUED:    6083468  USEFUL:      15227  USELESS:     532992
L2C AVERAGE MISS LATENCY: 39.0557 cycles
LLC TOTAL     ACCESS:    2592368  HIT:    2553956  MISS:      38412
LLC LOAD      ACCESS:     144624  HIT:     141026  MISS:       3598
LLC RFO       ACCESS:      95734  HIT:      81101  MISS:      14633
LLC PREFETCH  ACCESS:    2188279  HIT:    2168285  MISS:      19994
LLC WRITEBACK ACCESS:     163731  HIT:     163544  MISS:        187
LLC PREFETCH  REQUESTED:          0  ISSUED:          0  USEFUL:       1041  USELESS:      17724
LLC AVERAGE MISS LATENCY: 188.895 cycles
Major fault: 0 Minor fault: 2167
CPU 0 L1I EPI prefetcher final stats
CPU 0 L1D next line prefetcher final stats

DRAM Statistics
 CHANNEL 0
 RQ ROW_BUFFER_HIT:      13031  ROW_BUFFER_MISS:      25192
 DBUS_CONGESTED:      24698
 WQ ROW_BUFFER_HIT:       1696  ROW_BUFFER_MISS:      15216  FULL:          0

 AVG_CONGESTED_CYCLE: 6

CPU 0 Branch Prediction Accuracy: 99.822% MPKI: 0.32584 Average ROB Occupancy at Mispredict: 205.998

Branch types
NOT_BRANCH: 40848568 81.6971%
BRANCH_DIRECT_JUMP: 522045 1.04409%
BRANCH_INDIRECT: 204034 0.408068%
BRANCH_CONDITIONAL: 6212961 12.4259%
BRANCH_DIRECT_CALL: 932392 1.86478%
BRANCH_INDIRECT_CALL: 173764 0.347528%
BRANCH_RETURN: 1106152 2.2123%
BRANCH_OTHER: 0 0%

