Initialize SIGNATURE TABLE
ST_SET: 1
ST_WAY: 256
ST_TAG_BIT: 16
ST_TAG_MASK: ffff

Initialize PATTERN TABLE
PT_SET: 512
PT_WAY: 4
SIG_DELTA_BIT: 7
C_SIG_BIT: 4
C_DELTA_BIT: 4

Initialize PREFETCH FILTER
FILTER_SET: 1024

*** ChampSim Multicore Out-of-Order Simulator ***

Warmup Instructions: 50000000
Simulation Instructions: 50000000
Number of CPUs: 1
LLC sets: 2048
LLC ways: 16
Off-chip DRAM Size: 4096 MB Channels: 1 Width: 64-bit Data Rate: 3200 MT/s

CPU 0 runs /home/tapatil/CSE240C/SA1/ChampSim-master/ipc1_public/server_019.champsimtrace.xz
CPU 0 EPI prefetcher
CPU 0 L1D next line prefetcher
Heartbeat CPU 0 instructions: 10000002 cycles: 3622054 heartbeat IPC: 2.76086 cumulative IPC: 2.76086 (Simulation time: 0 hr 0 min 33 sec) 
Heartbeat CPU 0 instructions: 20000003 cycles: 7245765 heartbeat IPC: 2.7596 cumulative IPC: 2.76023 (Simulation time: 0 hr 1 min 6 sec) 
Heartbeat CPU 0 instructions: 30000002 cycles: 10868735 heartbeat IPC: 2.76017 cumulative IPC: 2.76021 (Simulation time: 0 hr 1 min 39 sec) 
Heartbeat CPU 0 instructions: 40000002 cycles: 14503198 heartbeat IPC: 2.75144 cumulative IPC: 2.75801 (Simulation time: 0 hr 2 min 12 sec) 
Heartbeat CPU 0 instructions: 50000001 cycles: 18126289 heartbeat IPC: 2.76007 cumulative IPC: 2.75842 (Simulation time: 0 hr 2 min 46 sec) 

Warmup complete CPU 0 instructions: 50000001 cycles: 18126289 (Simulation time: 0 hr 2 min 46 sec) 

Heartbeat CPU 0 instructions: 60000000 cycles: 37985531 heartbeat IPC: 0.503544 cumulative IPC: 0.503544 (Simulation time: 0 hr 3 min 32 sec) 
Heartbeat CPU 0 instructions: 70000002 cycles: 61645735 heartbeat IPC: 0.422651 cumulative IPC: 0.459565 (Simulation time: 0 hr 4 min 16 sec) 
Heartbeat CPU 0 instructions: 80000001 cycles: 82128618 heartbeat IPC: 0.488212 cumulative IPC: 0.468733 (Simulation time: 0 hr 4 min 58 sec) 
Heartbeat CPU 0 instructions: 90000002 cycles: 99617417 heartbeat IPC: 0.571795 cumulative IPC: 0.490851 (Simulation time: 0 hr 5 min 41 sec) 
Heartbeat CPU 0 instructions: 100000002 cycles: 117129443 heartbeat IPC: 0.571036 cumulative IPC: 0.505034 (Simulation time: 0 hr 6 min 27 sec) 
Finished CPU 0 instructions: 50000001 cycles: 99003154 cumulative IPC: 0.505034 (Simulation time: 0 hr 6 min 27 sec) 

ChampSim completed all CPUs

Region of Interest Statistics

CPU 0 cumulative IPC: 0.505034 instructions: 50000001 cycles: 99003154
L1D TOTAL     ACCESS:   18300140  HIT:   16076566  MISS:    2223574
L1D LOAD      ACCESS:    6974008  HIT:    6220572  MISS:     753436
L1D RFO       ACCESS:    5513387  HIT:    4611399  MISS:     901988
L1D PREFETCH  ACCESS:    5812745  HIT:    5244595  MISS:     568150
L1D WRITEBACK ACCESS:          0  HIT:          0  MISS:          0
L1D PREFETCH  REQUESTED:    7011758  ISSUED:    6824583  USEFUL:     199013  USELESS:     369046
L1D AVERAGE MISS LATENCY: 186.17 cycles
L1I TOTAL     ACCESS:   30338014  HIT:   28075050  MISS:    2262964
L1I LOAD      ACCESS:    9855515  HIT:    9835499  MISS:      20016
L1I RFO       ACCESS:          0  HIT:          0  MISS:          0
L1I PREFETCH  ACCESS:   20482499  HIT:   18239551  MISS:    2242948
L1I WRITEBACK ACCESS:          0  HIT:          0  MISS:          0
L1I PREFETCH  REQUESTED:   23334011  ISSUED:   23334011  USEFUL:    2100711  USELESS:     142217
L1I AVERAGE MISS LATENCY: 20.0903 cycles
L2C TOTAL     ACCESS:    6707887  HIT:    4815543  MISS:    1892344
L2C LOAD      ACCESS:     567329  HIT:     233210  MISS:     334119
L2C RFO       ACCESS:     901462  HIT:      18085  MISS:     883377
L2C PREFETCH  ACCESS:    4064478  HIT:    3391960  MISS:     672518
L2C WRITEBACK ACCESS:    1174618  HIT:    1172288  MISS:       2330
L2C PREFETCH  REQUESTED:    4052737  ISSUED:    4048054  USEFUL:      22816  USELESS:     648341
L2C AVERAGE MISS LATENCY: 222.846 cycles
LLC TOTAL     ACCESS:    4173291  HIT:    2568347  MISS:    1604944
LLC LOAD      ACCESS:     333991  HIT:     168953  MISS:     165038
LLC RFO       ACCESS:     883370  HIT:     114919  MISS:     768451
LLC PREFETCH  ACCESS:    1845044  HIT:    1175723  MISS:     669321
LLC WRITEBACK ACCESS:    1110886  HIT:    1108752  MISS:       2134
LLC PREFETCH  REQUESTED:          0  ISSUED:          0  USEFUL:      52304  USELESS:     616580
LLC AVERAGE MISS LATENCY: 276.325 cycles
Major fault: 0 Minor fault: 25692
CPU 0 L1I EPI prefetcher final stats
CPU 0 L1D next line prefetcher final stats

DRAM Statistics
 CHANNEL 0
 RQ ROW_BUFFER_HIT:     396077  ROW_BUFFER_MISS:    1206444
 DBUS_CONGESTED:    1583572
 WQ ROW_BUFFER_HIT:     264895  ROW_BUFFER_MISS:     670909  FULL:          0

 AVG_CONGESTED_CYCLE: 6

CPU 0 Branch Prediction Accuracy: 99.2186% MPKI: 1.32192 Average ROB Occupancy at Mispredict: 179.618

Branch types
NOT_BRANCH: 41540785 83.0816%
BRANCH_DIRECT_JUMP: 462384 0.924768%
BRANCH_INDIRECT: 45460 0.09092%
BRANCH_CONDITIONAL: 6209281 12.4186%
BRANCH_DIRECT_CALL: 666241 1.33248%
BRANCH_INDIRECT_CALL: 204728 0.409456%
BRANCH_RETURN: 870978 1.74196%
BRANCH_OTHER: 0 0%

