Initialize SIGNATURE TABLE
ST_SET: 1
ST_WAY: 256
ST_TAG_BIT: 16
ST_TAG_MASK: ffff

Initialize PATTERN TABLE
PT_SET: 512
PT_WAY: 4
SIG_DELTA_BIT: 7
C_SIG_BIT: 4
C_DELTA_BIT: 4

Initialize PREFETCH FILTER
FILTER_SET: 1024

*** ChampSim Multicore Out-of-Order Simulator ***

Warmup Instructions: 50000000
Simulation Instructions: 50000000
Number of CPUs: 1
LLC sets: 2048
LLC ways: 16
Off-chip DRAM Size: 4096 MB Channels: 1 Width: 64-bit Data Rate: 3200 MT/s

CPU 0 runs /home/tapatil/CSE240C/SA1/ChampSim-master/ipc1_public/server_014.champsimtrace.xz
CPU 0 EPI prefetcher
CPU 0 L1D next line prefetcher
Heartbeat CPU 0 instructions: 10000003 cycles: 3519541 heartbeat IPC: 2.84128 cumulative IPC: 2.84128 (Simulation time: 0 hr 0 min 32 sec) 
Heartbeat CPU 0 instructions: 20000000 cycles: 7106423 heartbeat IPC: 2.78794 cumulative IPC: 2.81436 (Simulation time: 0 hr 1 min 6 sec) 
Heartbeat CPU 0 instructions: 30000001 cycles: 10647942 heartbeat IPC: 2.82365 cumulative IPC: 2.81745 (Simulation time: 0 hr 1 min 42 sec) 
Heartbeat CPU 0 instructions: 40000003 cycles: 14196164 heartbeat IPC: 2.81831 cumulative IPC: 2.81766 (Simulation time: 0 hr 2 min 17 sec) 
Heartbeat CPU 0 instructions: 50000000 cycles: 17744838 heartbeat IPC: 2.81795 cumulative IPC: 2.81772 (Simulation time: 0 hr 2 min 53 sec) 

Warmup complete CPU 0 instructions: 50000001 cycles: 17744839 (Simulation time: 0 hr 2 min 53 sec) 

Heartbeat CPU 0 instructions: 60000000 cycles: 24031913 heartbeat IPC: 1.59056 cumulative IPC: 1.59056 (Simulation time: 0 hr 3 min 31 sec) 
Heartbeat CPU 0 instructions: 70000003 cycles: 30323277 heartbeat IPC: 1.58948 cumulative IPC: 1.59002 (Simulation time: 0 hr 4 min 8 sec) 
*** Reached end of trace for Core: 0 Repeating trace: /home/tapatil/CSE240C/SA1/ChampSim-master/ipc1_public/server_014.champsimtrace.xz
Heartbeat CPU 0 instructions: 80000001 cycles: 36881549 heartbeat IPC: 1.52479 cumulative IPC: 1.56767 (Simulation time: 0 hr 4 min 44 sec) 
Heartbeat CPU 0 instructions: 90000003 cycles: 44379526 heartbeat IPC: 1.33369 cumulative IPC: 1.5018 (Simulation time: 0 hr 5 min 21 sec) 
Heartbeat CPU 0 instructions: 100000001 cycles: 50868168 heartbeat IPC: 1.54115 cumulative IPC: 1.50951 (Simulation time: 0 hr 5 min 58 sec) 
Finished CPU 0 instructions: 50000000 cycles: 33123329 cumulative IPC: 1.50951 (Simulation time: 0 hr 5 min 58 sec) 

ChampSim completed all CPUs

Region of Interest Statistics

CPU 0 cumulative IPC: 1.50951 instructions: 50000000 cycles: 33123329
L1D TOTAL     ACCESS:   21626738  HIT:   21555876  MISS:      70862
L1D LOAD      ACCESS:    6673476  HIT:    6646536  MISS:      26940
L1D RFO       ACCESS:    8412834  HIT:    8380771  MISS:      32063
L1D PREFETCH  ACCESS:    6540428  HIT:    6528569  MISS:      11859
L1D WRITEBACK ACCESS:          0  HIT:          0  MISS:          0
L1D PREFETCH  REQUESTED:    6678037  ISSUED:    6568342  USEFUL:       3301  USELESS:       8558
L1D AVERAGE MISS LATENCY: 232.425 cycles
L1I TOTAL     ACCESS:   38931362  HIT:   36520190  MISS:    2411172
L1I LOAD      ACCESS:    9722370  HIT:    9681519  MISS:      40851
L1I RFO       ACCESS:          0  HIT:          0  MISS:          0
L1I PREFETCH  ACCESS:   29208992  HIT:   26838671  MISS:    2370321
L1I WRITEBACK ACCESS:          0  HIT:          0  MISS:          0
L1I PREFETCH  REQUESTED:   34692737  ISSUED:   34692737  USEFUL:    1922164  USELESS:     448163
L1I AVERAGE MISS LATENCY: 15.0641 cycles
L2C TOTAL     ACCESS:    3519434  HIT:    3447333  MISS:      72101
L2C LOAD      ACCESS:      50411  HIT:      32235  MISS:      18176
L2C RFO       ACCESS:      32014  HIT:       1088  MISS:      30926
L2C PREFETCH  ACCESS:    3398642  HIT:    3375671  MISS:      22971
L2C WRITEBACK ACCESS:      38367  HIT:      38339  MISS:         28
L2C PREFETCH  REQUESTED:    2583915  ISSUED:    2583838  USEFUL:       1422  USELESS:      21154
L2C AVERAGE MISS LATENCY: 261.959 cycles
LLC TOTAL     ACCESS:     480175  HIT:     415069  MISS:      65106
LLC LOAD      ACCESS:      17085  HIT:       4765  MISS:      12320
LLC RFO       ACCESS:      30926  HIT:       4262  MISS:      26664
LLC PREFETCH  ACCESS:     397435  HIT:     371433  MISS:      26002
LLC WRITEBACK ACCESS:      34729  HIT:      34609  MISS:        120
LLC PREFETCH  REQUESTED:          0  ISSUED:          0  USEFUL:       3890  USELESS:      22865
LLC AVERAGE MISS LATENCY: 317.528 cycles
Major fault: 0 Minor fault: 1911
CPU 0 L1I EPI prefetcher final stats
CPU 0 L1D next line prefetcher final stats

DRAM Statistics
 CHANNEL 0
 RQ ROW_BUFFER_HIT:      28469  ROW_BUFFER_MISS:      36512
 DBUS_CONGESTED:      67022
 WQ ROW_BUFFER_HIT:       8233  ROW_BUFFER_MISS:      23861  FULL:          0

 AVG_CONGESTED_CYCLE: 6

CPU 0 Branch Prediction Accuracy: 99.7719% MPKI: 0.38824 Average ROB Occupancy at Mispredict: 155.805

Branch types
NOT_BRANCH: 41489011 82.978%
BRANCH_DIRECT_JUMP: 449417 0.898834%
BRANCH_INDIRECT: 2330 0.00466%
BRANCH_CONDITIONAL: 5470016 10.94%
BRANCH_DIRECT_CALL: 1172187 2.34437%
BRANCH_INDIRECT_CALL: 122383 0.244766%
BRANCH_RETURN: 1294554 2.58911%
BRANCH_OTHER: 0 0%

