Initialize SIGNATURE TABLE
ST_SET: 1
ST_WAY: 256
ST_TAG_BIT: 16
ST_TAG_MASK: ffff

Initialize PATTERN TABLE
PT_SET: 512
PT_WAY: 4
SIG_DELTA_BIT: 7
C_SIG_BIT: 4
C_DELTA_BIT: 4

Initialize PREFETCH FILTER
FILTER_SET: 1024

*** ChampSim Multicore Out-of-Order Simulator ***

Warmup Instructions: 50000000
Simulation Instructions: 50000000
Number of CPUs: 1
LLC sets: 2048
LLC ways: 16
Off-chip DRAM Size: 4096 MB Channels: 1 Width: 64-bit Data Rate: 3200 MT/s

CPU 0 runs /home/tapatil/CSE240C/SA1/ChampSim-master/ipc1_public/server_033.champsimtrace.xz
CPU 0 EPI prefetcher
CPU 0 L1D next line prefetcher
Heartbeat CPU 0 instructions: 10000001 cycles: 3341593 heartbeat IPC: 2.99258 cumulative IPC: 2.99258 (Simulation time: 0 hr 0 min 35 sec) 
Heartbeat CPU 0 instructions: 20000002 cycles: 6681653 heartbeat IPC: 2.99396 cumulative IPC: 2.99327 (Simulation time: 0 hr 1 min 10 sec) 
Heartbeat CPU 0 instructions: 30000001 cycles: 10011061 heartbeat IPC: 3.00354 cumulative IPC: 2.99669 (Simulation time: 0 hr 1 min 46 sec) 
Heartbeat CPU 0 instructions: 40000000 cycles: 13349316 heartbeat IPC: 2.99558 cumulative IPC: 2.99641 (Simulation time: 0 hr 2 min 21 sec) 
Heartbeat CPU 0 instructions: 50000000 cycles: 16687054 heartbeat IPC: 2.99604 cumulative IPC: 2.99633 (Simulation time: 0 hr 2 min 57 sec) 

Warmup complete CPU 0 instructions: 50000004 cycles: 16687055 (Simulation time: 0 hr 2 min 57 sec) 

Heartbeat CPU 0 instructions: 60000000 cycles: 23252965 heartbeat IPC: 1.52302 cumulative IPC: 1.52302 (Simulation time: 0 hr 3 min 35 sec) 
Heartbeat CPU 0 instructions: 70000000 cycles: 29777663 heartbeat IPC: 1.53264 cumulative IPC: 1.52781 (Simulation time: 0 hr 4 min 12 sec) 
Heartbeat CPU 0 instructions: 80000000 cycles: 37119880 heartbeat IPC: 1.36199 cumulative IPC: 1.46823 (Simulation time: 0 hr 4 min 51 sec) 
Heartbeat CPU 0 instructions: 90000003 cycles: 43729875 heartbeat IPC: 1.51286 cumulative IPC: 1.47914 (Simulation time: 0 hr 5 min 29 sec) 
Heartbeat CPU 0 instructions: 100000003 cycles: 50316002 heartbeat IPC: 1.51834 cumulative IPC: 1.48681 (Simulation time: 0 hr 6 min 7 sec) 
Finished CPU 0 instructions: 50000003 cycles: 33628948 cumulative IPC: 1.48681 (Simulation time: 0 hr 6 min 7 sec) 

ChampSim completed all CPUs

Region of Interest Statistics

CPU 0 cumulative IPC: 1.48681 instructions: 50000003 cycles: 33628948
L1D TOTAL     ACCESS:   18231072  HIT:   16748767  MISS:    1482305
L1D LOAD      ACCESS:    6140343  HIT:    5456781  MISS:     683562
L1D RFO       ACCESS:    6164662  HIT:    6015449  MISS:     149213
L1D PREFETCH  ACCESS:    5926067  HIT:    5276537  MISS:     649530
L1D WRITEBACK ACCESS:          0  HIT:          0  MISS:          0
L1D PREFETCH  REQUESTED:    6182173  ISSUED:    6061829  USEFUL:     141284  USELESS:     508252
L1D AVERAGE MISS LATENCY: 23.8113 cycles
L1I TOTAL     ACCESS:   32066222  HIT:   28252995  MISS:    3813227
L1I LOAD      ACCESS:    9692038  HIT:    9658748  MISS:      33290
L1I RFO       ACCESS:          0  HIT:          0  MISS:          0
L1I PREFETCH  ACCESS:   22374184  HIT:   18594247  MISS:    3779937
L1I WRITEBACK ACCESS:          0  HIT:          0  MISS:          0
L1I PREFETCH  REQUESTED:   27526470  ISSUED:   27526470  USEFUL:    3326096  USELESS:     453846
L1I AVERAGE MISS LATENCY: 15.4748 cycles
L2C TOTAL     ACCESS:    7308645  HIT:    7018683  MISS:     289962
L2C LOAD      ACCESS:     694094  HIT:     573572  MISS:     120522
L2C RFO       ACCESS:     147848  HIT:     128421  MISS:      19427
L2C PREFETCH  ACCESS:    6100236  HIT:    5951372  MISS:     148864
L2C WRITEBACK ACCESS:     366467  HIT:     365318  MISS:       1149
L2C PREFETCH  REQUESTED:    6370320  ISSUED:    6349994  USEFUL:       9324  USELESS:     139023
L2C AVERAGE MISS LATENCY: 51.9192 cycles
LLC TOTAL     ACCESS:    2104537  HIT:    2038204  MISS:      66333
LLC LOAD      ACCESS:     120486  HIT:     106224  MISS:      14262
LLC RFO       ACCESS:      19426  HIT:      16245  MISS:       3181
LLC PREFETCH  ACCESS:    1861872  HIT:    1813291  MISS:      48581
LLC WRITEBACK ACCESS:     102753  HIT:     102444  MISS:        309
LLC PREFETCH  REQUESTED:          0  ISSUED:          0  USEFUL:       7085  USELESS:      40647
LLC AVERAGE MISS LATENCY: 174.763 cycles
Major fault: 0 Minor fault: 2483
CPU 0 L1I EPI prefetcher final stats
CPU 0 L1D next line prefetcher final stats

DRAM Statistics
 CHANNEL 0
 RQ ROW_BUFFER_HIT:      10483  ROW_BUFFER_MISS:      55532
 DBUS_CONGESTED:      27128
 WQ ROW_BUFFER_HIT:       3968  ROW_BUFFER_MISS:      17318  FULL:          0

 AVG_CONGESTED_CYCLE: 5

CPU 0 Branch Prediction Accuracy: 99.9029% MPKI: 0.19006 Average ROB Occupancy at Mispredict: 252.629

Branch types
NOT_BRANCH: 40217192 80.4344%
BRANCH_DIRECT_JUMP: 774600 1.5492%
BRANCH_INDIRECT: 108806 0.217612%
BRANCH_CONDITIONAL: 6379341 12.7587%
BRANCH_DIRECT_CALL: 1048812 2.09762%
BRANCH_INDIRECT_CALL: 211109 0.422218%
BRANCH_RETURN: 1259927 2.51985%
BRANCH_OTHER: 0 0%

