Initialize SIGNATURE TABLE
ST_SET: 1
ST_WAY: 256
ST_TAG_BIT: 16
ST_TAG_MASK: ffff

Initialize PATTERN TABLE
PT_SET: 512
PT_WAY: 4
SIG_DELTA_BIT: 7
C_SIG_BIT: 4
C_DELTA_BIT: 4

Initialize PREFETCH FILTER
FILTER_SET: 1024

*** ChampSim Multicore Out-of-Order Simulator ***

Warmup Instructions: 50000000
Simulation Instructions: 50000000
Number of CPUs: 1
LLC sets: 2048
LLC ways: 16
Off-chip DRAM Size: 4096 MB Channels: 1 Width: 64-bit Data Rate: 3200 MT/s

CPU 0 runs /home/tapatil/CSE240C/SA1/ChampSim-master/ipc1_public/spec_gobmk_001.champsimtrace.xz
CPU 0 EPI prefetcher
CPU 0 L1D next line prefetcher
Heartbeat CPU 0 instructions: 10000003 cycles: 3508283 heartbeat IPC: 2.8504 cumulative IPC: 2.8504 (Simulation time: 0 hr 0 min 29 sec) 
Heartbeat CPU 0 instructions: 20000002 cycles: 6989094 heartbeat IPC: 2.87289 cumulative IPC: 2.8616 (Simulation time: 0 hr 0 min 58 sec) 
Heartbeat CPU 0 instructions: 30000002 cycles: 10508613 heartbeat IPC: 2.8413 cumulative IPC: 2.8548 (Simulation time: 0 hr 1 min 27 sec) 
Heartbeat CPU 0 instructions: 40000001 cycles: 14028474 heartbeat IPC: 2.84102 cumulative IPC: 2.85134 (Simulation time: 0 hr 1 min 56 sec) 
Heartbeat CPU 0 instructions: 50000001 cycles: 17569173 heartbeat IPC: 2.8243 cumulative IPC: 2.84589 (Simulation time: 0 hr 2 min 25 sec) 

Warmup complete CPU 0 instructions: 50000001 cycles: 17569173 (Simulation time: 0 hr 2 min 25 sec) 

Heartbeat CPU 0 instructions: 60000000 cycles: 26327085 heartbeat IPC: 1.14182 cumulative IPC: 1.14182 (Simulation time: 0 hr 2 min 51 sec) 
Heartbeat CPU 0 instructions: 70000002 cycles: 34743585 heartbeat IPC: 1.18814 cumulative IPC: 1.16452 (Simulation time: 0 hr 3 min 19 sec) 
Heartbeat CPU 0 instructions: 80000003 cycles: 43576723 heartbeat IPC: 1.1321 cumulative IPC: 1.15351 (Simulation time: 0 hr 3 min 40 sec) 
Heartbeat CPU 0 instructions: 90000001 cycles: 52086237 heartbeat IPC: 1.17516 cumulative IPC: 1.15885 (Simulation time: 0 hr 4 min 1 sec) 
Heartbeat CPU 0 instructions: 100000000 cycles: 60914897 heartbeat IPC: 1.13267 cumulative IPC: 1.15352 (Simulation time: 0 hr 4 min 22 sec) 
Finished CPU 0 instructions: 50000002 cycles: 43345727 cumulative IPC: 1.15352 (Simulation time: 0 hr 4 min 22 sec) 

ChampSim completed all CPUs

Region of Interest Statistics

CPU 0 cumulative IPC: 1.15352 instructions: 50000002 cycles: 43345727
L1D TOTAL     ACCESS:   17985760  HIT:   17606212  MISS:     379548
L1D LOAD      ACCESS:    7211482  HIT:    7077315  MISS:     134167
L1D RFO       ACCESS:    3701356  HIT:    3596807  MISS:     104549
L1D PREFETCH  ACCESS:    7072922  HIT:    6932090  MISS:     140832
L1D WRITEBACK ACCESS:          0  HIT:          0  MISS:          0
L1D PREFETCH  REQUESTED:    7217092  ISSUED:    7134368  USEFUL:      46123  USELESS:      94715
L1D AVERAGE MISS LATENCY: 34.0171 cycles
L1I TOTAL     ACCESS:   44898922  HIT:   43381744  MISS:    1517178
L1I LOAD      ACCESS:    8952788  HIT:    8873807  MISS:      78981
L1I RFO       ACCESS:          0  HIT:          0  MISS:          0
L1I PREFETCH  ACCESS:   35946134  HIT:   34507937  MISS:    1438197
L1I WRITEBACK ACCESS:          0  HIT:          0  MISS:          0
L1I PREFETCH  REQUESTED:   50780267  ISSUED:   50780267  USEFUL:     705868  USELESS:     732343
L1I AVERAGE MISS LATENCY: 15.1302 cycles
L2C TOTAL     ACCESS:    2958500  HIT:    2829391  MISS:     129109
L2C LOAD      ACCESS:     172466  HIT:     137691  MISS:      34775
L2C RFO       ACCESS:     104176  HIT:      69170  MISS:      35006
L2C PREFETCH  ACCESS:    2542565  HIT:    2483335  MISS:      59230
L2C WRITEBACK ACCESS:     139293  HIT:     139195  MISS:         98
L2C PREFETCH  REQUESTED:    2426527  ISSUED:    2426134  USEFUL:       4760  USELESS:      54827
L2C AVERAGE MISS LATENCY: 64.9152 cycles
LLC TOTAL     ACCESS:     301784  HIT:     261691  MISS:      40093
LLC LOAD      ACCESS:      34771  HIT:      26573  MISS:       8198
LLC RFO       ACCESS:      35006  HIT:      27648  MISS:       7358
LLC PREFETCH  ACCESS:     186187  HIT:     161985  MISS:      24202
LLC WRITEBACK ACCESS:      45820  HIT:      45485  MISS:        335
LLC PREFETCH  REQUESTED:          0  ISSUED:          0  USEFUL:       1401  USELESS:      21001
LLC AVERAGE MISS LATENCY: 177.586 cycles
Major fault: 0 Minor fault: 4157
CPU 0 L1I EPI prefetcher final stats
CPU 0 L1D next line prefetcher final stats

DRAM Statistics
 CHANNEL 0
 RQ ROW_BUFFER_HIT:       5239  ROW_BUFFER_MISS:      34519
 DBUS_CONGESTED:      24509
 WQ ROW_BUFFER_HIT:       1642  ROW_BUFFER_MISS:      15669  FULL:          0

 AVG_CONGESTED_CYCLE: 4

CPU 0 Branch Prediction Accuracy: 94.7729% MPKI: 9.72684 Average ROB Occupancy at Mispredict: 54.1359

Branch types
NOT_BRANCH: 40695364 81.3907%
BRANCH_DIRECT_JUMP: 422107 0.844214%
BRANCH_INDIRECT: 65 0.00013%
BRANCH_CONDITIONAL: 8105004 16.21%
BRANCH_DIRECT_CALL: 374912 0.749824%
BRANCH_INDIRECT_CALL: 13657 0.027314%
BRANCH_RETURN: 388556 0.777112%
BRANCH_OTHER: 0 0%

