Initialize SIGNATURE TABLE
ST_SET: 1
ST_WAY: 256
ST_TAG_BIT: 16
ST_TAG_MASK: ffff

Initialize PATTERN TABLE
PT_SET: 512
PT_WAY: 4
SIG_DELTA_BIT: 7
C_SIG_BIT: 4
C_DELTA_BIT: 4

Initialize PREFETCH FILTER
FILTER_SET: 1024

*** ChampSim Multicore Out-of-Order Simulator ***

Warmup Instructions: 50000000
Simulation Instructions: 50000000
Number of CPUs: 1
LLC sets: 2048
LLC ways: 16
Off-chip DRAM Size: 4096 MB Channels: 1 Width: 64-bit Data Rate: 3200 MT/s

CPU 0 runs /home/tapatil/CSE240C/SA1/ChampSim-master/ipc1_public/spec_gobmk_001.champsimtrace.xz
CPU 0 EPI prefetcher
CPU 0 L1D next line prefetcher
Heartbeat CPU 0 instructions: 10000003 cycles: 3507275 heartbeat IPC: 2.85122 cumulative IPC: 2.85122 (Simulation time: 0 hr 0 min 29 sec) 
Heartbeat CPU 0 instructions: 20000002 cycles: 6988088 heartbeat IPC: 2.87289 cumulative IPC: 2.86201 (Simulation time: 0 hr 0 min 59 sec) 
Heartbeat CPU 0 instructions: 30000002 cycles: 10507678 heartbeat IPC: 2.84124 cumulative IPC: 2.85506 (Simulation time: 0 hr 1 min 30 sec) 
Heartbeat CPU 0 instructions: 40000001 cycles: 14027678 heartbeat IPC: 2.84091 cumulative IPC: 2.85151 (Simulation time: 0 hr 2 min 2 sec) 
Heartbeat CPU 0 instructions: 50000001 cycles: 17568499 heartbeat IPC: 2.8242 cumulative IPC: 2.846 (Simulation time: 0 hr 2 min 36 sec) 

Warmup complete CPU 0 instructions: 50000001 cycles: 17568499 (Simulation time: 0 hr 2 min 36 sec) 

Heartbeat CPU 0 instructions: 60000000 cycles: 26349023 heartbeat IPC: 1.13888 cumulative IPC: 1.13888 (Simulation time: 0 hr 3 min 10 sec) 
Heartbeat CPU 0 instructions: 70000002 cycles: 34779670 heartbeat IPC: 1.18615 cumulative IPC: 1.16204 (Simulation time: 0 hr 3 min 43 sec) 
Heartbeat CPU 0 instructions: 80000003 cycles: 43631072 heartbeat IPC: 1.12976 cumulative IPC: 1.15108 (Simulation time: 0 hr 4 min 15 sec) 
Heartbeat CPU 0 instructions: 90000001 cycles: 52160421 heartbeat IPC: 1.17242 cumulative IPC: 1.15634 (Simulation time: 0 hr 4 min 44 sec) 
Heartbeat CPU 0 instructions: 100000003 cycles: 60997932 heartbeat IPC: 1.13154 cumulative IPC: 1.15129 (Simulation time: 0 hr 5 min 16 sec) 
Finished CPU 0 instructions: 50000002 cycles: 43429433 cumulative IPC: 1.15129 (Simulation time: 0 hr 5 min 16 sec) 

ChampSim completed all CPUs

Region of Interest Statistics

CPU 0 cumulative IPC: 1.15129 instructions: 50000002 cycles: 43429433
L1D TOTAL     ACCESS:   17993272  HIT:   17613713  MISS:     379559
L1D LOAD      ACCESS:    7214791  HIT:    7080854  MISS:     133937
L1D RFO       ACCESS:    3702011  HIT:    3597465  MISS:     104546
L1D PREFETCH  ACCESS:    7076470  HIT:    6935394  MISS:     141076
L1D WRITEBACK ACCESS:          0  HIT:          0  MISS:          0
L1D PREFETCH  REQUESTED:    7220449  ISSUED:    7137702  USEFUL:      46356  USELESS:      94725
L1D AVERAGE MISS LATENCY: 34.3526 cycles
L1I TOTAL     ACCESS:   50474202  HIT:   48800231  MISS:    1673971
L1I LOAD      ACCESS:    8956255  HIT:    8873915  MISS:      82340
L1I RFO       ACCESS:          0  HIT:          0  MISS:          0
L1I PREFETCH  ACCESS:   41517947  HIT:   39926316  MISS:    1591631
L1I WRITEBACK ACCESS:          0  HIT:          0  MISS:          0
L1I PREFETCH  REQUESTED:   58976102  ISSUED:   58976102  USEFUL:     702075  USELESS:     889542
L1I AVERAGE MISS LATENCY: 15.1747 cycles
L2C TOTAL     ACCESS:    3230680  HIT:    3098431  MISS:     132249
L2C LOAD      ACCESS:     179666  HIT:     144583  MISS:      35083
L2C RFO       ACCESS:     104199  HIT:      69442  MISS:      34757
L2C PREFETCH  ACCESS:    2807514  HIT:    2745198  MISS:      62316
L2C WRITEBACK ACCESS:     139301  HIT:     139208  MISS:         93
L2C PREFETCH  REQUESTED:    2684318  ISSUED:    2683402  USEFUL:       4811  USELESS:      57827
L2C AVERAGE MISS LATENCY: 65.2537 cycles
LLC TOTAL     ACCESS:     295510  HIT:     253141  MISS:      42369
LLC LOAD      ACCESS:      35080  HIT:      26891  MISS:       8189
LLC RFO       ACCESS:      34756  HIT:      26935  MISS:       7821
LLC PREFETCH  ACCESS:     179955  HIT:     153908  MISS:      26047
LLC WRITEBACK ACCESS:      45719  HIT:      45407  MISS:        312
LLC PREFETCH  REQUESTED:          0  ISSUED:          0  USEFUL:       1464  USELESS:      22533
LLC AVERAGE MISS LATENCY: 178.4 cycles
Major fault: 0 Minor fault: 4158
CPU 0 L1I EPI prefetcher final stats
CPU 0 L1D next line prefetcher final stats

DRAM Statistics
 CHANNEL 0
 RQ ROW_BUFFER_HIT:       5490  ROW_BUFFER_MISS:      36566
 DBUS_CONGESTED:      27773
 WQ ROW_BUFFER_HIT:       1721  ROW_BUFFER_MISS:      16494  FULL:          0

 AVG_CONGESTED_CYCLE: 5

CPU 0 Branch Prediction Accuracy: 94.7729% MPKI: 9.72684 Average ROB Occupancy at Mispredict: 54.1219

Branch types
NOT_BRANCH: 40695373 81.3907%
BRANCH_DIRECT_JUMP: 422107 0.844214%
BRANCH_INDIRECT: 65 0.00013%
BRANCH_CONDITIONAL: 8105004 16.21%
BRANCH_DIRECT_CALL: 374912 0.749824%
BRANCH_INDIRECT_CALL: 13657 0.027314%
BRANCH_RETURN: 388556 0.777112%
BRANCH_OTHER: 0 0%

