Initialize SIGNATURE TABLE
ST_SET: 1
ST_WAY: 256
ST_TAG_BIT: 16
ST_TAG_MASK: ffff

Initialize PATTERN TABLE
PT_SET: 512
PT_WAY: 4
SIG_DELTA_BIT: 7
C_SIG_BIT: 4
C_DELTA_BIT: 4

Initialize PREFETCH FILTER
FILTER_SET: 1024

*** ChampSim Multicore Out-of-Order Simulator ***

Warmup Instructions: 50000000
Simulation Instructions: 50000000
Number of CPUs: 1
LLC sets: 2048
LLC ways: 16
Off-chip DRAM Size: 4096 MB Channels: 1 Width: 64-bit Data Rate: 3200 MT/s

CPU 0 runs /home/tapatil/CSE240C/SA1/ChampSim-master/ipc1_public/spec_gobmk_001.champsimtrace.xz
CPU 0 EPI prefetcher
CPU 0 L1D next line prefetcher
Heartbeat CPU 0 instructions: 10000003 cycles: 3507226 heartbeat IPC: 2.85126 cumulative IPC: 2.85126 (Simulation time: 0 hr 0 min 32 sec) 
Heartbeat CPU 0 instructions: 20000002 cycles: 6987912 heartbeat IPC: 2.873 cumulative IPC: 2.86209 (Simulation time: 0 hr 1 min 5 sec) 
Heartbeat CPU 0 instructions: 30000002 cycles: 10507521 heartbeat IPC: 2.84122 cumulative IPC: 2.8551 (Simulation time: 0 hr 1 min 37 sec) 
Heartbeat CPU 0 instructions: 40000001 cycles: 14027217 heartbeat IPC: 2.84115 cumulative IPC: 2.8516 (Simulation time: 0 hr 2 min 10 sec) 
Heartbeat CPU 0 instructions: 50000001 cycles: 17567884 heartbeat IPC: 2.82433 cumulative IPC: 2.8461 (Simulation time: 0 hr 2 min 43 sec) 

Warmup complete CPU 0 instructions: 50000001 cycles: 17567884 (Simulation time: 0 hr 2 min 43 sec) 

Heartbeat CPU 0 instructions: 60000000 cycles: 26349905 heartbeat IPC: 1.13869 cumulative IPC: 1.13869 (Simulation time: 0 hr 3 min 15 sec) 
Heartbeat CPU 0 instructions: 70000002 cycles: 34779638 heartbeat IPC: 1.18628 cumulative IPC: 1.162 (Simulation time: 0 hr 3 min 48 sec) 
Heartbeat CPU 0 instructions: 80000003 cycles: 43629868 heartbeat IPC: 1.12991 cumulative IPC: 1.1511 (Simulation time: 0 hr 4 min 20 sec) 
Heartbeat CPU 0 instructions: 90000001 cycles: 52149556 heartbeat IPC: 1.17375 cumulative IPC: 1.15668 (Simulation time: 0 hr 4 min 51 sec) 
Heartbeat CPU 0 instructions: 100000003 cycles: 60992638 heartbeat IPC: 1.13083 cumulative IPC: 1.15142 (Simulation time: 0 hr 5 min 25 sec) 
Finished CPU 0 instructions: 50000002 cycles: 43424754 cumulative IPC: 1.15142 (Simulation time: 0 hr 5 min 25 sec) 

ChampSim completed all CPUs

Region of Interest Statistics

CPU 0 cumulative IPC: 1.15142 instructions: 50000002 cycles: 43424754
L1D TOTAL     ACCESS:   17995507  HIT:   17615951  MISS:     379556
L1D LOAD      ACCESS:    7215921  HIT:    7081995  MISS:     133926
L1D RFO       ACCESS:    3701773  HIT:    3597215  MISS:     104558
L1D PREFETCH  ACCESS:    7077813  HIT:    6936741  MISS:     141072
L1D WRITEBACK ACCESS:          0  HIT:          0  MISS:          0
L1D PREFETCH  REQUESTED:    7221473  ISSUED:    7138735  USEFUL:      46362  USELESS:      94715
L1D AVERAGE MISS LATENCY: 33.9567 cycles
L1I TOTAL     ACCESS:   51007602  HIT:   49296142  MISS:    1711460
L1I LOAD      ACCESS:    8957731  HIT:    8875738  MISS:      81993
L1I RFO       ACCESS:          0  HIT:          0  MISS:          0
L1I PREFETCH  ACCESS:   42049871  HIT:   40420404  MISS:    1629467
L1I WRITEBACK ACCESS:          0  HIT:          0  MISS:          0
L1I PREFETCH  REQUESTED:   58598715  ISSUED:   58598715  USEFUL:     713885  USELESS:     915568
L1I AVERAGE MISS LATENCY: 15.1423 cycles
L2C TOTAL     ACCESS:    3311994  HIT:    3180974  MISS:     131020
L2C LOAD      ACCESS:     179777  HIT:     144608  MISS:      35169
L2C RFO       ACCESS:     104202  HIT:      69553  MISS:      34649
L2C PREFETCH  ACCESS:    2888720  HIT:    2827589  MISS:      61131
L2C WRITEBACK ACCESS:     139295  HIT:     139224  MISS:         71
L2C PREFETCH  REQUESTED:    2759497  ISSUED:    2758778  USEFUL:       4795  USELESS:      56640
L2C AVERAGE MISS LATENCY: 64.4474 cycles
LLC TOTAL     ACCESS:     295750  HIT:     254263  MISS:      41487
LLC LOAD      ACCESS:      35165  HIT:      27021  MISS:       8144
LLC RFO       ACCESS:      34648  HIT:      27210  MISS:       7438
LLC PREFETCH  ACCESS:     180405  HIT:     154807  MISS:      25598
LLC WRITEBACK ACCESS:      45532  HIT:      45225  MISS:        307
LLC PREFETCH  REQUESTED:          0  ISSUED:          0  USEFUL:       1400  USELESS:      21991
LLC AVERAGE MISS LATENCY: 176.658 cycles
Major fault: 0 Minor fault: 4156
CPU 0 L1I EPI prefetcher final stats
CPU 0 L1D next line prefetcher final stats

DRAM Statistics
 CHANNEL 0
 RQ ROW_BUFFER_HIT:       5346  ROW_BUFFER_MISS:      35834
 DBUS_CONGESTED:      26388
 WQ ROW_BUFFER_HIT:       1598  ROW_BUFFER_MISS:      16147  FULL:          0

 AVG_CONGESTED_CYCLE: 5

CPU 0 Branch Prediction Accuracy: 94.7729% MPKI: 9.72684 Average ROB Occupancy at Mispredict: 54.0723

Branch types
NOT_BRANCH: 40695383 81.3908%
BRANCH_DIRECT_JUMP: 422107 0.844214%
BRANCH_INDIRECT: 65 0.00013%
BRANCH_CONDITIONAL: 8105006 16.21%
BRANCH_DIRECT_CALL: 374913 0.749826%
BRANCH_INDIRECT_CALL: 13657 0.027314%
BRANCH_RETURN: 388556 0.777112%
BRANCH_OTHER: 0 0%

