Initialize SIGNATURE TABLE
ST_SET: 1
ST_WAY: 256
ST_TAG_BIT: 16
ST_TAG_MASK: ffff

Initialize PATTERN TABLE
PT_SET: 512
PT_WAY: 4
SIG_DELTA_BIT: 7
C_SIG_BIT: 4
C_DELTA_BIT: 4

Initialize PREFETCH FILTER
FILTER_SET: 1024

*** ChampSim Multicore Out-of-Order Simulator ***

Warmup Instructions: 50000000
Simulation Instructions: 50000000
Number of CPUs: 1
LLC sets: 2048
LLC ways: 16
Off-chip DRAM Size: 4096 MB Channels: 1 Width: 64-bit Data Rate: 3200 MT/s

CPU 0 runs /home/tapatil/CSE240C/SA1/ChampSim-master/ipc1_public/spec_gcc_001.champsimtrace.xz
CPU 0 EPI prefetcher
CPU 0 L1D next line prefetcher
Heartbeat CPU 0 instructions: 10000003 cycles: 3219555 heartbeat IPC: 3.10602 cumulative IPC: 3.10602 (Simulation time: 0 hr 0 min 30 sec) 
Heartbeat CPU 0 instructions: 20000002 cycles: 6464502 heartbeat IPC: 3.08171 cumulative IPC: 3.09382 (Simulation time: 0 hr 1 min 1 sec) 
Heartbeat CPU 0 instructions: 30000000 cycles: 9665873 heartbeat IPC: 3.12366 cumulative IPC: 3.1037 (Simulation time: 0 hr 1 min 30 sec) 
Heartbeat CPU 0 instructions: 40000001 cycles: 12904136 heartbeat IPC: 3.08808 cumulative IPC: 3.09978 (Simulation time: 0 hr 2 min 1 sec) 
Heartbeat CPU 0 instructions: 50000001 cycles: 16144677 heartbeat IPC: 3.0859 cumulative IPC: 3.097 (Simulation time: 0 hr 2 min 33 sec) 

Warmup complete CPU 0 instructions: 50000001 cycles: 16144677 (Simulation time: 0 hr 2 min 33 sec) 

Heartbeat CPU 0 instructions: 60000000 cycles: 23887416 heartbeat IPC: 1.29153 cumulative IPC: 1.29153 (Simulation time: 0 hr 3 min 3 sec) 
Heartbeat CPU 0 instructions: 70000002 cycles: 31707710 heartbeat IPC: 1.27872 cumulative IPC: 1.2851 (Simulation time: 0 hr 3 min 35 sec) 
Heartbeat CPU 0 instructions: 80000000 cycles: 39200365 heartbeat IPC: 1.33464 cumulative IPC: 1.3012 (Simulation time: 0 hr 4 min 6 sec) 
Heartbeat CPU 0 instructions: 90000001 cycles: 47003753 heartbeat IPC: 1.28149 cumulative IPC: 1.29622 (Simulation time: 0 hr 4 min 37 sec) 
Heartbeat CPU 0 instructions: 100000000 cycles: 55073691 heartbeat IPC: 1.23917 cumulative IPC: 1.28439 (Simulation time: 0 hr 5 min 8 sec) 
Finished CPU 0 instructions: 50000000 cycles: 38929018 cumulative IPC: 1.28439 (Simulation time: 0 hr 5 min 8 sec) 

ChampSim completed all CPUs

Region of Interest Statistics

CPU 0 cumulative IPC: 1.28439 instructions: 50000000 cycles: 38929018
L1D TOTAL     ACCESS:   19301106  HIT:   18195972  MISS:    1105134
L1D LOAD      ACCESS:    7221739  HIT:    6742270  MISS:     479469
L1D RFO       ACCESS:    5115916  HIT:    5036306  MISS:      79610
L1D PREFETCH  ACCESS:    6963451  HIT:    6417396  MISS:     546055
L1D WRITEBACK ACCESS:          0  HIT:          0  MISS:          0
L1D PREFETCH  REQUESTED:    7265400  ISSUED:    7167883  USEFUL:     275839  USELESS:     270229
L1D AVERAGE MISS LATENCY: 25.6022 cycles
L1I TOTAL     ACCESS:   33592496  HIT:   33019277  MISS:     573219
L1I LOAD      ACCESS:    9276539  HIT:    9235680  MISS:      40859
L1I RFO       ACCESS:          0  HIT:          0  MISS:          0
L1I PREFETCH  ACCESS:   24315957  HIT:   23783597  MISS:     532360
L1I WRITEBACK ACCESS:          0  HIT:          0  MISS:          0
L1I PREFETCH  REQUESTED:   31299848  ISSUED:   31299848  USEFUL:     334607  USELESS:     197735
L1I AVERAGE MISS LATENCY: 20.0126 cycles
L2C TOTAL     ACCESS:    2813060  HIT:    2559165  MISS:     253895
L2C LOAD      ACCESS:     481454  HIT:     401240  MISS:      80214
L2C RFO       ACCESS:      74983  HIT:      36549  MISS:      38434
L2C PREFETCH  ACCESS:    2002862  HIT:    1868078  MISS:     134784
L2C WRITEBACK ACCESS:     253761  HIT:     253298  MISS:        463
L2C PREFETCH  REQUESTED:    1919719  ISSUED:    1919479  USEFUL:      31294  USELESS:     102835
L2C AVERAGE MISS LATENCY: 63.3303 cycles
LLC TOTAL     ACCESS:     663129  HIT:     590679  MISS:      72450
LLC LOAD      ACCESS:      80024  HIT:      69726  MISS:      10298
LLC RFO       ACCESS:      38433  HIT:      17774  MISS:      20659
LLC PREFETCH  ACCESS:     452363  HIT:     411976  MISS:      40387
LLC WRITEBACK ACCESS:      92309  HIT:      91203  MISS:       1106
LLC PREFETCH  REQUESTED:          0  ISSUED:          0  USEFUL:      13152  USELESS:      26624
LLC AVERAGE MISS LATENCY: 186.233 cycles
Major fault: 0 Minor fault: 6869
CPU 0 L1I EPI prefetcher final stats
CPU 0 L1D next line prefetcher final stats

DRAM Statistics
 CHANNEL 0
 RQ ROW_BUFFER_HIT:      19820  ROW_BUFFER_MISS:      51522
 DBUS_CONGESTED:      38558
 WQ ROW_BUFFER_HIT:       4357  ROW_BUFFER_MISS:      23481  FULL:          0

 AVG_CONGESTED_CYCLE: 6

CPU 0 Branch Prediction Accuracy: 95.8872% MPKI: 9.67286 Average ROB Occupancy at Mispredict: 68.0454

Branch types
NOT_BRANCH: 38240114 76.4802%
BRANCH_DIRECT_JUMP: 653296 1.30659%
BRANCH_INDIRECT: 37098 0.074196%
BRANCH_CONDITIONAL: 8897820 17.7956%
BRANCH_DIRECT_CALL: 992621 1.98524%
BRANCH_INDIRECT_CALL: 93046 0.186092%
BRANCH_RETURN: 1085674 2.17135%
BRANCH_OTHER: 0 0%

