Initialize SIGNATURE TABLE
ST_SET: 1
ST_WAY: 256
ST_TAG_BIT: 16
ST_TAG_MASK: ffff

Initialize PATTERN TABLE
PT_SET: 512
PT_WAY: 4
SIG_DELTA_BIT: 7
C_SIG_BIT: 4
C_DELTA_BIT: 4

Initialize PREFETCH FILTER
FILTER_SET: 1024

*** ChampSim Multicore Out-of-Order Simulator ***

Warmup Instructions: 50000000
Simulation Instructions: 50000000
Number of CPUs: 1
LLC sets: 2048
LLC ways: 16
Off-chip DRAM Size: 4096 MB Channels: 1 Width: 64-bit Data Rate: 3200 MT/s

CPU 0 runs /home/tapatil/CSE240C/SA1/ChampSim-master/ipc1_public/spec_perlbench_001.champsimtrace.xz
CPU 0 EPI prefetcher
CPU 0 L1D next line prefetcher
Heartbeat CPU 0 instructions: 10000000 cycles: 3276349 heartbeat IPC: 3.05218 cumulative IPC: 3.05218 (Simulation time: 0 hr 0 min 30 sec) 
Heartbeat CPU 0 instructions: 20000000 cycles: 6541781 heartbeat IPC: 3.06238 cumulative IPC: 3.05727 (Simulation time: 0 hr 1 min 4 sec) 
Heartbeat CPU 0 instructions: 30000002 cycles: 9859470 heartbeat IPC: 3.01415 cumulative IPC: 3.04276 (Simulation time: 0 hr 1 min 38 sec) 
Heartbeat CPU 0 instructions: 40000002 cycles: 13115290 heartbeat IPC: 3.07142 cumulative IPC: 3.04988 (Simulation time: 0 hr 2 min 10 sec) 
Heartbeat CPU 0 instructions: 50000001 cycles: 16389268 heartbeat IPC: 3.05439 cumulative IPC: 3.05078 (Simulation time: 0 hr 2 min 43 sec) 

Warmup complete CPU 0 instructions: 50000001 cycles: 16389268 (Simulation time: 0 hr 2 min 43 sec) 

Heartbeat CPU 0 instructions: 60000001 cycles: 24572980 heartbeat IPC: 1.22194 cumulative IPC: 1.22194 (Simulation time: 0 hr 3 min 19 sec) 
Heartbeat CPU 0 instructions: 70000003 cycles: 32618138 heartbeat IPC: 1.24298 cumulative IPC: 1.23237 (Simulation time: 0 hr 3 min 58 sec) 
Heartbeat CPU 0 instructions: 80000000 cycles: 40978308 heartbeat IPC: 1.19615 cumulative IPC: 1.22006 (Simulation time: 0 hr 4 min 33 sec) 
Heartbeat CPU 0 instructions: 90000000 cycles: 46698076 heartbeat IPC: 1.74832 cumulative IPC: 1.31975 (Simulation time: 0 hr 5 min 3 sec) 
Heartbeat CPU 0 instructions: 100000002 cycles: 52559765 heartbeat IPC: 1.70599 cumulative IPC: 1.38234 (Simulation time: 0 hr 5 min 32 sec) 
Finished CPU 0 instructions: 50000001 cycles: 36170497 cumulative IPC: 1.38234 (Simulation time: 0 hr 5 min 32 sec) 

ChampSim completed all CPUs

Region of Interest Statistics

CPU 0 cumulative IPC: 1.38234 instructions: 50000001 cycles: 36170497
L1D TOTAL     ACCESS:   20669120  HIT:   20254021  MISS:     415099
L1D LOAD      ACCESS:    7164473  HIT:    6950712  MISS:     213761
L1D RFO       ACCESS:    6541970  HIT:    6523461  MISS:      18509
L1D PREFETCH  ACCESS:    6962677  HIT:    6779848  MISS:     182829
L1D WRITEBACK ACCESS:          0  HIT:          0  MISS:          0
L1D PREFETCH  REQUESTED:    7180012  ISSUED:    7063432  USEFUL:      55143  USELESS:     127681
L1D AVERAGE MISS LATENCY: 57.9884 cycles
L1I TOTAL     ACCESS:   41938592  HIT:   41144159  MISS:     794433
L1I LOAD      ACCESS:    9151643  HIT:    9108632  MISS:      43011
L1I RFO       ACCESS:          0  HIT:          0  MISS:          0
L1I PREFETCH  ACCESS:   32786949  HIT:   32035527  MISS:     751422
L1I WRITEBACK ACCESS:          0  HIT:          0  MISS:          0
L1I PREFETCH  REQUESTED:   44367724  ISSUED:   44367724  USEFUL:     430847  USELESS:     320630
L1I AVERAGE MISS LATENCY: 16.8959 cycles
L2C TOTAL     ACCESS:    1720431  HIT:    1551227  MISS:     169204
L2C LOAD      ACCESS:     236761  HIT:     158237  MISS:      78524
L2C RFO       ACCESS:      18261  HIT:      12807  MISS:       5454
L2C PREFETCH  ACCESS:    1386455  HIT:    1301572  MISS:      84883
L2C WRITEBACK ACCESS:      78954  HIT:      78611  MISS:        343
L2C PREFETCH  REQUESTED:    1235642  ISSUED:    1235603  USEFUL:       6199  USELESS:      78553
L2C AVERAGE MISS LATENCY: 118.547 cycles
LLC TOTAL     ACCESS:     415678  HIT:     272500  MISS:     143178
LLC LOAD      ACCESS:      78521  HIT:      30828  MISS:      47693
LLC RFO       ACCESS:       5454  HIT:       2414  MISS:       3040
LLC PREFETCH  ACCESS:     306148  HIT:     214175  MISS:      91973
LLC WRITEBACK ACCESS:      25555  HIT:      25083  MISS:        472
LLC PREFETCH  REQUESTED:          0  ISSUED:          0  USEFUL:      14530  USELESS:      77414
LLC AVERAGE MISS LATENCY: 160.305 cycles
Major fault: 0 Minor fault: 6367
CPU 0 L1I EPI prefetcher final stats
CPU 0 L1D next line prefetcher final stats

DRAM Statistics
 CHANNEL 0
 RQ ROW_BUFFER_HIT:      32935  ROW_BUFFER_MISS:     109770
 DBUS_CONGESTED:      59231
 WQ ROW_BUFFER_HIT:       4059  ROW_BUFFER_MISS:      13344  FULL:          0

 AVG_CONGESTED_CYCLE: 4

CPU 0 Branch Prediction Accuracy: 98.7418% MPKI: 2.47758 Average ROB Occupancy at Mispredict: 80.8504

Branch types
NOT_BRANCH: 40154100 80.3082%
BRANCH_DIRECT_JUMP: 817094 1.63419%
BRANCH_INDIRECT: 303787 0.607574%
BRANCH_CONDITIONAL: 7492103 14.9842%
BRANCH_DIRECT_CALL: 471777 0.943554%
BRANCH_INDIRECT_CALL: 144546 0.289092%
BRANCH_RETURN: 616324 1.23265%
BRANCH_OTHER: 0 0%

