Initialize SIGNATURE TABLE
ST_SET: 1
ST_WAY: 256
ST_TAG_BIT: 16
ST_TAG_MASK: ffff

Initialize PATTERN TABLE
PT_SET: 512
PT_WAY: 4
SIG_DELTA_BIT: 7
C_SIG_BIT: 4
C_DELTA_BIT: 4

Initialize PREFETCH FILTER
FILTER_SET: 1024

*** ChampSim Multicore Out-of-Order Simulator ***

Warmup Instructions: 50000000
Simulation Instructions: 50000000
Number of CPUs: 1
LLC sets: 2048
LLC ways: 16
Off-chip DRAM Size: 4096 MB Channels: 1 Width: 64-bit Data Rate: 3200 MT/s

CPU 0 runs /home/tapatil/CSE240C/SA1/ChampSim-master/ipc1_public/spec_perlbench_001.champsimtrace.xz
CPU 0 EPI prefetcher
CPU 0 L1D next line prefetcher
Heartbeat CPU 0 instructions: 10000000 cycles: 3276254 heartbeat IPC: 3.05227 cumulative IPC: 3.05227 (Simulation time: 0 hr 0 min 33 sec) 
Heartbeat CPU 0 instructions: 20000000 cycles: 6541698 heartbeat IPC: 3.06237 cumulative IPC: 3.05731 (Simulation time: 0 hr 1 min 11 sec) 
Heartbeat CPU 0 instructions: 30000002 cycles: 9859578 heartbeat IPC: 3.01397 cumulative IPC: 3.04273 (Simulation time: 0 hr 1 min 49 sec) 
Heartbeat CPU 0 instructions: 40000002 cycles: 13115525 heartbeat IPC: 3.0713 cumulative IPC: 3.04982 (Simulation time: 0 hr 2 min 26 sec) 
Heartbeat CPU 0 instructions: 50000001 cycles: 16389559 heartbeat IPC: 3.05434 cumulative IPC: 3.05072 (Simulation time: 0 hr 3 min 1 sec) 

Warmup complete CPU 0 instructions: 50000001 cycles: 16389559 (Simulation time: 0 hr 3 min 1 sec) 

Heartbeat CPU 0 instructions: 60000001 cycles: 24572101 heartbeat IPC: 1.22211 cumulative IPC: 1.22211 (Simulation time: 0 hr 3 min 40 sec) 
Heartbeat CPU 0 instructions: 70000003 cycles: 32605827 heartbeat IPC: 1.24475 cumulative IPC: 1.23333 (Simulation time: 0 hr 4 min 19 sec) 
Heartbeat CPU 0 instructions: 80000000 cycles: 40958195 heartbeat IPC: 1.19726 cumulative IPC: 1.22107 (Simulation time: 0 hr 4 min 56 sec) 
Heartbeat CPU 0 instructions: 90000000 cycles: 46676709 heartbeat IPC: 1.74871 cumulative IPC: 1.32069 (Simulation time: 0 hr 5 min 30 sec) 
Heartbeat CPU 0 instructions: 100000002 cycles: 52540006 heartbeat IPC: 1.70553 cumulative IPC: 1.38311 (Simulation time: 0 hr 6 min 4 sec) 
Finished CPU 0 instructions: 50000001 cycles: 36150447 cumulative IPC: 1.38311 (Simulation time: 0 hr 6 min 4 sec) 

ChampSim completed all CPUs

Region of Interest Statistics

CPU 0 cumulative IPC: 1.38311 instructions: 50000001 cycles: 36150447
L1D TOTAL     ACCESS:   20669264  HIT:   20254171  MISS:     415093
L1D LOAD      ACCESS:    7164551  HIT:    6950744  MISS:     213807
L1D RFO       ACCESS:    6541926  HIT:    6523425  MISS:      18501
L1D PREFETCH  ACCESS:    6962787  HIT:    6780002  MISS:     182785
L1D WRITEBACK ACCESS:          0  HIT:          0  MISS:          0
L1D PREFETCH  REQUESTED:    7180153  ISSUED:    7063593  USEFUL:      55096  USELESS:     127684
L1D AVERAGE MISS LATENCY: 57.939 cycles
L1I TOTAL     ACCESS:   44389214  HIT:   43576964  MISS:     812250
L1I LOAD      ACCESS:    9150637  HIT:    9107475  MISS:      43162
L1I RFO       ACCESS:          0  HIT:          0  MISS:          0
L1I PREFETCH  ACCESS:   35238577  HIT:   34469489  MISS:     769088
L1I WRITEBACK ACCESS:          0  HIT:          0  MISS:          0
L1I PREFETCH  REQUESTED:   48638931  ISSUED:   48638931  USEFUL:     428886  USELESS:     340260
L1I AVERAGE MISS LATENCY: 16.9307 cycles
L2C TOTAL     ACCESS:    1751635  HIT:    1580999  MISS:     170636
L2C LOAD      ACCESS:     236956  HIT:     158251  MISS:      78705
L2C RFO       ACCESS:      18260  HIT:      12748  MISS:       5512
L2C PREFETCH  ACCESS:    1417480  HIT:    1331477  MISS:      86003
L2C WRITEBACK ACCESS:      78939  HIT:      78523  MISS:        416
L2C PREFETCH  REQUESTED:    1282371  ISSUED:    1282295  USEFUL:       6313  USELESS:      79550
L2C AVERAGE MISS LATENCY: 117.64 cycles
LLC TOTAL     ACCESS:     422289  HIT:     278544  MISS:     143745
LLC LOAD      ACCESS:      78704  HIT:      31254  MISS:      47450
LLC RFO       ACCESS:       5512  HIT:       2470  MISS:       3042
LLC PREFETCH  ACCESS:     312351  HIT:     219589  MISS:      92762
LLC WRITEBACK ACCESS:      25722  HIT:      25231  MISS:        491
LLC PREFETCH  REQUESTED:          0  ISSUED:          0  USEFUL:      14720  USELESS:      77895
LLC AVERAGE MISS LATENCY: 160.521 cycles
Major fault: 0 Minor fault: 6366
CPU 0 L1I EPI prefetcher final stats
CPU 0 L1D next line prefetcher final stats

DRAM Statistics
 CHANNEL 0
 RQ ROW_BUFFER_HIT:      32639  ROW_BUFFER_MISS:     110614
 DBUS_CONGESTED:      60126
 WQ ROW_BUFFER_HIT:       4057  ROW_BUFFER_MISS:      13370  FULL:          0

 AVG_CONGESTED_CYCLE: 4

CPU 0 Branch Prediction Accuracy: 98.7418% MPKI: 2.47758 Average ROB Occupancy at Mispredict: 80.8939

Branch types
NOT_BRANCH: 40154100 80.3082%
BRANCH_DIRECT_JUMP: 817094 1.63419%
BRANCH_INDIRECT: 303787 0.607574%
BRANCH_CONDITIONAL: 7492103 14.9842%
BRANCH_DIRECT_CALL: 471777 0.943554%
BRANCH_INDIRECT_CALL: 144546 0.289092%
BRANCH_RETURN: 616324 1.23265%
BRANCH_OTHER: 0 0%

