Initialize SIGNATURE TABLE
ST_SET: 1
ST_WAY: 256
ST_TAG_BIT: 16
ST_TAG_MASK: ffff

Initialize PATTERN TABLE
PT_SET: 512
PT_WAY: 4
SIG_DELTA_BIT: 7
C_SIG_BIT: 4
C_DELTA_BIT: 4

Initialize PREFETCH FILTER
FILTER_SET: 1024

*** ChampSim Multicore Out-of-Order Simulator ***

Warmup Instructions: 50000000
Simulation Instructions: 50000000
Number of CPUs: 1
LLC sets: 2048
LLC ways: 16
Off-chip DRAM Size: 4096 MB Channels: 1 Width: 64-bit Data Rate: 3200 MT/s

CPU 0 runs /home/tapatil/CSE240C/SA1/ChampSim-master/ipc1_public/spec_gobmk_002.champsimtrace.xz
CPU 0 EPI prefetcher
CPU 0 L1D next line prefetcher
Heartbeat CPU 0 instructions: 10000001 cycles: 3287597 heartbeat IPC: 3.04174 cumulative IPC: 3.04174 (Simulation time: 0 hr 0 min 32 sec) 
Heartbeat CPU 0 instructions: 20000000 cycles: 6619250 heartbeat IPC: 3.00151 cumulative IPC: 3.02149 (Simulation time: 0 hr 1 min 4 sec) 
Heartbeat CPU 0 instructions: 30000000 cycles: 9957270 heartbeat IPC: 2.99579 cumulative IPC: 3.01287 (Simulation time: 0 hr 1 min 38 sec) 
Heartbeat CPU 0 instructions: 40000000 cycles: 13266734 heartbeat IPC: 3.02164 cumulative IPC: 3.01506 (Simulation time: 0 hr 2 min 13 sec) 
Heartbeat CPU 0 instructions: 50000003 cycles: 16530321 heartbeat IPC: 3.06411 cumulative IPC: 3.02474 (Simulation time: 0 hr 2 min 46 sec) 

Warmup complete CPU 0 instructions: 50000003 cycles: 16530321 (Simulation time: 0 hr 2 min 46 sec) 

Heartbeat CPU 0 instructions: 60000003 cycles: 23949117 heartbeat IPC: 1.34793 cumulative IPC: 1.34793 (Simulation time: 0 hr 3 min 19 sec) 
Heartbeat CPU 0 instructions: 70000003 cycles: 31311263 heartbeat IPC: 1.3583 cumulative IPC: 1.35309 (Simulation time: 0 hr 3 min 52 sec) 
Heartbeat CPU 0 instructions: 80000000 cycles: 38565552 heartbeat IPC: 1.37849 cumulative IPC: 1.36146 (Simulation time: 0 hr 4 min 25 sec) 
Heartbeat CPU 0 instructions: 90000001 cycles: 46121299 heartbeat IPC: 1.3235 cumulative IPC: 1.35176 (Simulation time: 0 hr 4 min 55 sec) 
Heartbeat CPU 0 instructions: 100000003 cycles: 53883100 heartbeat IPC: 1.28836 cumulative IPC: 1.33859 (Simulation time: 0 hr 5 min 25 sec) 
Finished CPU 0 instructions: 50000000 cycles: 37352779 cumulative IPC: 1.33859 (Simulation time: 0 hr 5 min 25 sec) 

ChampSim completed all CPUs

Region of Interest Statistics

CPU 0 cumulative IPC: 1.33859 instructions: 50000000 cycles: 37352779
L1D TOTAL     ACCESS:   17630169  HIT:   17507052  MISS:     123117
L1D LOAD      ACCESS:    6660281  HIT:    6626034  MISS:      34247
L1D RFO       ACCESS:    4387971  HIT:    4345282  MISS:      42689
L1D PREFETCH  ACCESS:    6581917  HIT:    6535736  MISS:      46181
L1D WRITEBACK ACCESS:          0  HIT:          0  MISS:          0
L1D PREFETCH  REQUESTED:    6662698  ISSUED:    6595426  USEFUL:      17123  USELESS:      29240
L1D AVERAGE MISS LATENCY: 50.2536 cycles
L1I TOTAL     ACCESS:   53434756  HIT:   51043928  MISS:    2390828
L1I LOAD      ACCESS:    8864935  HIT:    8747441  MISS:     117494
L1I RFO       ACCESS:          0  HIT:          0  MISS:          0
L1I PREFETCH  ACCESS:   44569821  HIT:   42296487  MISS:    2273334
L1I WRITEBACK ACCESS:          0  HIT:          0  MISS:          0
L1I PREFETCH  REQUESTED:   61988989  ISSUED:   61988989  USEFUL:     994853  USELESS:    1278469
L1I AVERAGE MISS LATENCY: 14.6824 cycles
L2C TOTAL     ACCESS:    4061913  HIT:    4023454  MISS:      38459
L2C LOAD      ACCESS:     134325  HIT:     120647  MISS:      13678
L2C RFO       ACCESS:      42553  HIT:      39585  MISS:       2968
L2C PREFETCH  ACCESS:    3810830  HIT:    3789164  MISS:      21666
L2C WRITEBACK ACCESS:      74205  HIT:      74058  MISS:        147
L2C PREFETCH  REQUESTED:    3661149  ISSUED:    3660781  USEFUL:       2267  USELESS:      19675
L2C AVERAGE MISS LATENCY: 121.663 cycles
LLC TOTAL     ACCESS:     107269  HIT:      68560  MISS:      38709
LLC LOAD      ACCESS:      13678  HIT:       5197  MISS:       8481
LLC RFO       ACCESS:       2968  HIT:       1360  MISS:       1608
LLC PREFETCH  ACCESS:      72459  HIT:      44472  MISS:      27987
LLC WRITEBACK ACCESS:      18164  HIT:      17531  MISS:        633
LLC PREFETCH  REQUESTED:          0  ISSUED:          0  USEFUL:       2544  USELESS:      24444
LLC AVERAGE MISS LATENCY: 186.416 cycles
Major fault: 0 Minor fault: 2777
CPU 0 L1I EPI prefetcher final stats
CPU 0 L1D next line prefetcher final stats

DRAM Statistics
 CHANNEL 0
 RQ ROW_BUFFER_HIT:       2960  ROW_BUFFER_MISS:      35116
 DBUS_CONGESTED:      23626
 WQ ROW_BUFFER_HIT:        703  ROW_BUFFER_MISS:      14983  FULL:          0

 AVG_CONGESTED_CYCLE: 5

CPU 0 Branch Prediction Accuracy: 93.9974% MPKI: 10.2447 Average ROB Occupancy at Mispredict: 39.9701

Branch types
NOT_BRANCH: 41466049 82.9321%
BRANCH_DIRECT_JUMP: 464313 0.928626%
BRANCH_INDIRECT: 32 6.4e-05%
BRANCH_CONDITIONAL: 7069452 14.1389%
BRANCH_DIRECT_CALL: 499587 0.999174%
BRANCH_INDIRECT_CALL: 342 0.000684%
BRANCH_RETURN: 499906 0.999812%
BRANCH_OTHER: 0 0%

