Initialize SIGNATURE TABLE
ST_SET: 1
ST_WAY: 256
ST_TAG_BIT: 16
ST_TAG_MASK: ffff

Initialize PATTERN TABLE
PT_SET: 512
PT_WAY: 4
SIG_DELTA_BIT: 7
C_SIG_BIT: 4
C_DELTA_BIT: 4

Initialize PREFETCH FILTER
FILTER_SET: 1024

*** ChampSim Multicore Out-of-Order Simulator ***

Warmup Instructions: 50000000
Simulation Instructions: 50000000
Number of CPUs: 1
LLC sets: 2048
LLC ways: 16
Off-chip DRAM Size: 4096 MB Channels: 1 Width: 64-bit Data Rate: 3200 MT/s

CPU 0 runs /home/tapatil/CSE240C/SA1/ChampSim-master/ipc1_public/spec_x264_001.champsimtrace.xz
CPU 0 EPI prefetcher
CPU 0 L1D next line prefetcher
Heartbeat CPU 0 instructions: 10000002 cycles: 3059948 heartbeat IPC: 3.26803 cumulative IPC: 3.26803 (Simulation time: 0 hr 0 min 18 sec) 
Heartbeat CPU 0 instructions: 20000002 cycles: 6110392 heartbeat IPC: 3.27821 cumulative IPC: 3.27311 (Simulation time: 0 hr 0 min 36 sec) 
Heartbeat CPU 0 instructions: 30000002 cycles: 9146425 heartbeat IPC: 3.29377 cumulative IPC: 3.27997 (Simulation time: 0 hr 0 min 53 sec) 
Heartbeat CPU 0 instructions: 40000000 cycles: 12191111 heartbeat IPC: 3.28441 cumulative IPC: 3.28108 (Simulation time: 0 hr 1 min 10 sec) 
Heartbeat CPU 0 instructions: 50000000 cycles: 15234376 heartbeat IPC: 3.28594 cumulative IPC: 3.28205 (Simulation time: 0 hr 1 min 27 sec) 

Warmup complete CPU 0 instructions: 50000004 cycles: 15234377 (Simulation time: 0 hr 1 min 27 sec) 

Heartbeat CPU 0 instructions: 60000002 cycles: 21162307 heartbeat IPC: 1.68693 cumulative IPC: 1.68693 (Simulation time: 0 hr 1 min 40 sec) 
Heartbeat CPU 0 instructions: 70000000 cycles: 27070299 heartbeat IPC: 1.69262 cumulative IPC: 1.68977 (Simulation time: 0 hr 1 min 52 sec) 
