Initialize SIGNATURE TABLE
ST_SET: 1
ST_WAY: 256
ST_TAG_BIT: 16
ST_TAG_MASK: ffff

Initialize PATTERN TABLE
PT_SET: 512
PT_WAY: 4
SIG_DELTA_BIT: 7
C_SIG_BIT: 4
C_DELTA_BIT: 4

Initialize PREFETCH FILTER
FILTER_SET: 1024

*** ChampSim Multicore Out-of-Order Simulator ***

Warmup Instructions: 50000000
Simulation Instructions: 50000000
Number of CPUs: 1
LLC sets: 2048
LLC ways: 16
Off-chip DRAM Size: 4096 MB Channels: 1 Width: 64-bit Data Rate: 3200 MT/s

CPU 0 runs /home/tapatil/CSE240C/SA1/ChampSim-master/ipc1_public/spec_x264_001.champsimtrace.xz
CPU 0 EPI prefetcher
CPU 0 L1D next line prefetcher
Heartbeat CPU 0 instructions: 10000002 cycles: 3060048 heartbeat IPC: 3.26792 cumulative IPC: 3.26792 (Simulation time: 0 hr 0 min 20 sec) 
Heartbeat CPU 0 instructions: 20000002 cycles: 6110123 heartbeat IPC: 3.27861 cumulative IPC: 3.27326 (Simulation time: 0 hr 0 min 39 sec) 
Heartbeat CPU 0 instructions: 30000002 cycles: 9145691 heartbeat IPC: 3.29428 cumulative IPC: 3.28023 (Simulation time: 0 hr 0 min 59 sec) 
Heartbeat CPU 0 instructions: 40000000 cycles: 12190246 heartbeat IPC: 3.28455 cumulative IPC: 3.28131 (Simulation time: 0 hr 1 min 19 sec) 
Heartbeat CPU 0 instructions: 50000000 cycles: 15233327 heartbeat IPC: 3.28614 cumulative IPC: 3.28228 (Simulation time: 0 hr 1 min 41 sec) 

Warmup complete CPU 0 instructions: 50000004 cycles: 15233328 (Simulation time: 0 hr 1 min 41 sec) 

Heartbeat CPU 0 instructions: 60000002 cycles: 21160549 heartbeat IPC: 1.68713 cumulative IPC: 1.68713 (Simulation time: 0 hr 1 min 57 sec) 
Heartbeat CPU 0 instructions: 70000000 cycles: 27068335 heartbeat IPC: 1.69268 cumulative IPC: 1.6899 (Simulation time: 0 hr 2 min 13 sec) 
Heartbeat CPU 0 instructions: 80000003 cycles: 33122443 heartbeat IPC: 1.65177 cumulative IPC: 1.677 (Simulation time: 0 hr 2 min 28 sec) 
Heartbeat CPU 0 instructions: 90000002 cycles: 39159464 heartbeat IPC: 1.65645 cumulative IPC: 1.67181 (Simulation time: 0 hr 2 min 44 sec) 
Heartbeat CPU 0 instructions: 100000002 cycles: 45056708 heartbeat IPC: 1.69571 cumulative IPC: 1.67654 (Simulation time: 0 hr 2 min 59 sec) 
Finished CPU 0 instructions: 50000002 cycles: 29823381 cumulative IPC: 1.67654 (Simulation time: 0 hr 2 min 59 sec) 

ChampSim completed all CPUs

Region of Interest Statistics

CPU 0 cumulative IPC: 1.67654 instructions: 50000002 cycles: 29823381
L1D TOTAL     ACCESS:   12955755  HIT:   12794705  MISS:     161050
L1D LOAD      ACCESS:    5090624  HIT:    5035468  MISS:      55156
L1D RFO       ACCESS:    2880154  HIT:    2845856  MISS:      34298
L1D PREFETCH  ACCESS:    4984977  HIT:    4913381  MISS:      71596
L1D WRITEBACK ACCESS:          0  HIT:          0  MISS:          0
L1D PREFETCH  REQUESTED:    5107143  ISSUED:    5039609  USEFUL:      25734  USELESS:      45671
L1D AVERAGE MISS LATENCY: 40.5198 cycles
L1I TOTAL     ACCESS:   21664057  HIT:   21320841  MISS:     343216
L1I LOAD      ACCESS:    8035975  HIT:    8031808  MISS:       4167
L1I RFO       ACCESS:          0  HIT:          0  MISS:          0
L1I PREFETCH  ACCESS:   13628082  HIT:   13289033  MISS:     339049
L1I WRITEBACK ACCESS:          0  HIT:          0  MISS:          0
L1I PREFETCH  REQUESTED:   16473407  ISSUED:   16473407  USEFUL:     266573  USELESS:      72505
L1I AVERAGE MISS LATENCY: 15.0588 cycles
L2C TOTAL     ACCESS:     751811  HIT:     712185  MISS:      39626
L2C LOAD      ACCESS:      57169  HIT:      51802  MISS:       5367
L2C RFO       ACCESS:      34084  HIT:      22049  MISS:      12035
L2C PREFETCH  ACCESS:     617462  HIT:     595324  MISS:      22138
L2C WRITEBACK ACCESS:      43096  HIT:      43010  MISS:         86
L2C PREFETCH  REQUESTED:     623691  ISSUED:     622582  USEFUL:       8999  USELESS:      13421
L2C AVERAGE MISS LATENCY: 105.358 cycles
LLC TOTAL     ACCESS:     111157  HIT:      81922  MISS:      29235
LLC LOAD      ACCESS:       5367  HIT:       3185  MISS:       2182
LLC RFO       ACCESS:      12035  HIT:        427  MISS:      11608
LLC PREFETCH  ACCESS:      80177  HIT:      64795  MISS:      15382
LLC WRITEBACK ACCESS:      13578  HIT:      13515  MISS:         63
LLC PREFETCH  REQUESTED:          0  ISSUED:          0  USEFUL:       1733  USELESS:      14001
LLC AVERAGE MISS LATENCY: 166.59 cycles
Major fault: 0 Minor fault: 1287
CPU 0 L1I EPI prefetcher final stats
CPU 0 L1D next line prefetcher final stats

DRAM Statistics
 CHANNEL 0
 RQ ROW_BUFFER_HIT:       8900  ROW_BUFFER_MISS:      20272
 DBUS_CONGESTED:      12407
 WQ ROW_BUFFER_HIT:       3013  ROW_BUFFER_MISS:       9801  FULL:          0

 AVG_CONGESTED_CYCLE: 6

CPU 0 Branch Prediction Accuracy: 97.1633% MPKI: 1.73704 Average ROB Occupancy at Mispredict: 43.0645

Branch types
NOT_BRANCH: 46937921 93.8758%
BRANCH_DIRECT_JUMP: 170816 0.341632%
BRANCH_INDIRECT: 0 0%
BRANCH_CONDITIONAL: 2532774 5.06555%
BRANCH_DIRECT_CALL: 114227 0.228454%
BRANCH_INDIRECT_CALL: 64863 0.129726%
BRANCH_RETURN: 179089 0.358178%
BRANCH_OTHER: 0 0%

