Initialize SIGNATURE TABLE
ST_SET: 1
ST_WAY: 256
ST_TAG_BIT: 16
ST_TAG_MASK: ffff

Initialize PATTERN TABLE
PT_SET: 512
PT_WAY: 4
SIG_DELTA_BIT: 7
C_SIG_BIT: 4
C_DELTA_BIT: 4

Initialize PREFETCH FILTER
FILTER_SET: 1024

*** ChampSim Multicore Out-of-Order Simulator ***

Warmup Instructions: 50000000
Simulation Instructions: 50000000
Number of CPUs: 1
LLC sets: 2048
LLC ways: 16
Off-chip DRAM Size: 4096 MB Channels: 1 Width: 64-bit Data Rate: 3200 MT/s

CPU 0 runs /home/tapatil/CSE240C/SA1/ChampSim-master/ipc1_public/spec_gcc_003.champsimtrace.xz
CPU 0 EPI prefetcher
CPU 0 L1D next line prefetcher
Heartbeat CPU 0 instructions: 10000001 cycles: 3500418 heartbeat IPC: 2.8568 cumulative IPC: 2.8568 (Simulation time: 0 hr 0 min 26 sec) 
Heartbeat CPU 0 instructions: 20000000 cycles: 6968590 heartbeat IPC: 2.88336 cumulative IPC: 2.87002 (Simulation time: 0 hr 0 min 50 sec) 
Heartbeat CPU 0 instructions: 30000002 cycles: 10418756 heartbeat IPC: 2.89841 cumulative IPC: 2.87942 (Simulation time: 0 hr 1 min 13 sec) 
Heartbeat CPU 0 instructions: 40000000 cycles: 13906775 heartbeat IPC: 2.86696 cumulative IPC: 2.8763 (Simulation time: 0 hr 1 min 38 sec) 
Heartbeat CPU 0 instructions: 50000001 cycles: 17216492 heartbeat IPC: 3.02141 cumulative IPC: 2.90419 (Simulation time: 0 hr 2 min 3 sec) 

Warmup complete CPU 0 instructions: 50000001 cycles: 17216492 (Simulation time: 0 hr 2 min 3 sec) 

Heartbeat CPU 0 instructions: 60000000 cycles: 57779895 heartbeat IPC: 0.246528 cumulative IPC: 0.246528 (Simulation time: 0 hr 3 min 6 sec) 
Heartbeat CPU 0 instructions: 70000000 cycles: 101352979 heartbeat IPC: 0.229499 cumulative IPC: 0.237709 (Simulation time: 0 hr 4 min 3 sec) 
Heartbeat CPU 0 instructions: 80000002 cycles: 145521381 heartbeat IPC: 0.226406 cumulative IPC: 0.233818 (Simulation time: 0 hr 4 min 54 sec) 
