Initialize SIGNATURE TABLE
ST_SET: 1
ST_WAY: 256
ST_TAG_BIT: 16
ST_TAG_MASK: ffff

Initialize PATTERN TABLE
PT_SET: 512
PT_WAY: 4
SIG_DELTA_BIT: 7
C_SIG_BIT: 4
C_DELTA_BIT: 4

Initialize PREFETCH FILTER
FILTER_SET: 1024

*** ChampSim Multicore Out-of-Order Simulator ***

Warmup Instructions: 50000000
Simulation Instructions: 50000000
Number of CPUs: 1
LLC sets: 2048
LLC ways: 16
Off-chip DRAM Size: 4096 MB Channels: 1 Width: 64-bit Data Rate: 3200 MT/s

CPU 0 runs /home/tapatil/CSE240C/SA1/ChampSim-master/ipc1_public/spec_x264_001.champsimtrace.xz
CPU 0 EPI prefetcher
CPU 0 L1D next line prefetcher
Heartbeat CPU 0 instructions: 10000002 cycles: 3059905 heartbeat IPC: 3.26808 cumulative IPC: 3.26808 (Simulation time: 0 hr 0 min 23 sec) 
Heartbeat CPU 0 instructions: 20000002 cycles: 6109941 heartbeat IPC: 3.27865 cumulative IPC: 3.27335 (Simulation time: 0 hr 0 min 46 sec) 
Heartbeat CPU 0 instructions: 30000002 cycles: 9145554 heartbeat IPC: 3.29423 cumulative IPC: 3.28028 (Simulation time: 0 hr 1 min 8 sec) 
Heartbeat CPU 0 instructions: 40000000 cycles: 12190213 heartbeat IPC: 3.28444 cumulative IPC: 3.28132 (Simulation time: 0 hr 1 min 30 sec) 
Heartbeat CPU 0 instructions: 50000000 cycles: 15233256 heartbeat IPC: 3.28618 cumulative IPC: 3.28229 (Simulation time: 0 hr 1 min 53 sec) 

Warmup complete CPU 0 instructions: 50000004 cycles: 15233257 (Simulation time: 0 hr 1 min 53 sec) 

Heartbeat CPU 0 instructions: 60000002 cycles: 21163427 heartbeat IPC: 1.68629 cumulative IPC: 1.68629 (Simulation time: 0 hr 2 min 9 sec) 
Heartbeat CPU 0 instructions: 70000000 cycles: 27071759 heartbeat IPC: 1.69252 cumulative IPC: 1.6894 (Simulation time: 0 hr 2 min 25 sec) 
Heartbeat CPU 0 instructions: 80000003 cycles: 33124651 heartbeat IPC: 1.6521 cumulative IPC: 1.67678 (Simulation time: 0 hr 2 min 40 sec) 
Heartbeat CPU 0 instructions: 90000002 cycles: 39158534 heartbeat IPC: 1.65731 cumulative IPC: 1.67187 (Simulation time: 0 hr 2 min 56 sec) 
Heartbeat CPU 0 instructions: 100000002 cycles: 45054624 heartbeat IPC: 1.69604 cumulative IPC: 1.67665 (Simulation time: 0 hr 3 min 12 sec) 
Finished CPU 0 instructions: 50000002 cycles: 29821368 cumulative IPC: 1.67665 (Simulation time: 0 hr 3 min 12 sec) 

ChampSim completed all CPUs

Region of Interest Statistics

CPU 0 cumulative IPC: 1.67665 instructions: 50000002 cycles: 29821368
L1D TOTAL     ACCESS:   12959351  HIT:   12798343  MISS:     161008
L1D LOAD      ACCESS:    5093685  HIT:    5038522  MISS:      55163
L1D RFO       ACCESS:    2880062  HIT:    2845802  MISS:      34260
L1D PREFETCH  ACCESS:    4985604  HIT:    4914019  MISS:      71585
L1D WRITEBACK ACCESS:          0  HIT:          0  MISS:          0
L1D PREFETCH  REQUESTED:    5110197  ISSUED:    5042650  USEFUL:      25735  USELESS:      45659
L1D AVERAGE MISS LATENCY: 40.0701 cycles
L1I TOTAL     ACCESS:   20959869  HIT:   20624041  MISS:     335828
L1I LOAD      ACCESS:    8036554  HIT:    8032887  MISS:       3667
L1I RFO       ACCESS:          0  HIT:          0  MISS:          0
L1I PREFETCH  ACCESS:   12923315  HIT:   12591154  MISS:     332161
L1I WRITEBACK ACCESS:          0  HIT:          0  MISS:          0
L1I PREFETCH  REQUESTED:   15434577  ISSUED:   15434577  USEFUL:     271697  USELESS:      60499
L1I AVERAGE MISS LATENCY: 15.0874 cycles
L2C TOTAL     ACCESS:     745153  HIT:     705546  MISS:      39607
L2C LOAD      ACCESS:      56977  HIT:      51664  MISS:       5313
L2C RFO       ACCESS:      34015  HIT:      21897  MISS:      12118
L2C PREFETCH  ACCESS:     611119  HIT:     589007  MISS:      22112
L2C WRITEBACK ACCESS:      43042  HIT:      42978  MISS:         64
L2C PREFETCH  REQUESTED:     632189  ISSUED:     631251  USEFUL:       9012  USELESS:      13351
L2C AVERAGE MISS LATENCY: 103.603 cycles
LLC TOTAL     ACCESS:     115697  HIT:      86321  MISS:      29376
LLC LOAD      ACCESS:       5313  HIT:       3211  MISS:       2102
LLC RFO       ACCESS:      12118  HIT:        503  MISS:      11615
LLC PREFETCH  ACCESS:      84660  HIT:      69062  MISS:      15598
LLC WRITEBACK ACCESS:      13606  HIT:      13545  MISS:         61
LLC PREFETCH  REQUESTED:          0  ISSUED:          0  USEFUL:       1743  USELESS:      13982
LLC AVERAGE MISS LATENCY: 167.35 cycles
Major fault: 0 Minor fault: 1289
CPU 0 L1I EPI prefetcher final stats
CPU 0 L1D next line prefetcher final stats

DRAM Statistics
 CHANNEL 0
 RQ ROW_BUFFER_HIT:       9144  ROW_BUFFER_MISS:      20171
 DBUS_CONGESTED:      12966
 WQ ROW_BUFFER_HIT:       3046  ROW_BUFFER_MISS:       9934  FULL:          0

 AVG_CONGESTED_CYCLE: 6

CPU 0 Branch Prediction Accuracy: 97.1633% MPKI: 1.73704 Average ROB Occupancy at Mispredict: 42.9829

Branch types
NOT_BRANCH: 46937921 93.8758%
BRANCH_DIRECT_JUMP: 170816 0.341632%
BRANCH_INDIRECT: 0 0%
BRANCH_CONDITIONAL: 2532774 5.06555%
BRANCH_DIRECT_CALL: 114227 0.228454%
BRANCH_INDIRECT_CALL: 64863 0.129726%
BRANCH_RETURN: 179089 0.358178%
BRANCH_OTHER: 0 0%

