Initialize SIGNATURE TABLE
ST_SET: 1
ST_WAY: 256
ST_TAG_BIT: 16
ST_TAG_MASK: ffff

Initialize PATTERN TABLE
PT_SET: 512
PT_WAY: 4
SIG_DELTA_BIT: 7
C_SIG_BIT: 4
C_DELTA_BIT: 4

Initialize PREFETCH FILTER
FILTER_SET: 1024

*** ChampSim Multicore Out-of-Order Simulator ***

Warmup Instructions: 50000000
Simulation Instructions: 50000000
Number of CPUs: 1
LLC sets: 2048
LLC ways: 16
Off-chip DRAM Size: 4096 MB Channels: 1 Width: 64-bit Data Rate: 3200 MT/s

CPU 0 runs /home/tapatil/CSE240C/SA1/ChampSim-master/ipc1_public/spec_perlbench_001.champsimtrace.xz
CPU 0 EPI prefetcher
CPU 0 L1D next line prefetcher
Heartbeat CPU 0 instructions: 10000000 cycles: 3276107 heartbeat IPC: 3.0524 cumulative IPC: 3.0524 (Simulation time: 0 hr 0 min 31 sec) 
Heartbeat CPU 0 instructions: 20000000 cycles: 6541398 heartbeat IPC: 3.06251 cumulative IPC: 3.05745 (Simulation time: 0 hr 1 min 4 sec) 
Heartbeat CPU 0 instructions: 30000002 cycles: 9858593 heartbeat IPC: 3.0146 cumulative IPC: 3.04303 (Simulation time: 0 hr 1 min 37 sec) 
Heartbeat CPU 0 instructions: 40000002 cycles: 13114399 heartbeat IPC: 3.07144 cumulative IPC: 3.05008 (Simulation time: 0 hr 2 min 7 sec) 
Heartbeat CPU 0 instructions: 50000001 cycles: 16388289 heartbeat IPC: 3.05447 cumulative IPC: 3.05096 (Simulation time: 0 hr 2 min 34 sec) 

Warmup complete CPU 0 instructions: 50000001 cycles: 16388289 (Simulation time: 0 hr 2 min 34 sec) 

Heartbeat CPU 0 instructions: 60000001 cycles: 24585330 heartbeat IPC: 1.21995 cumulative IPC: 1.21995 (Simulation time: 0 hr 2 min 58 sec) 
Heartbeat CPU 0 instructions: 70000003 cycles: 32634081 heartbeat IPC: 1.24243 cumulative IPC: 1.23109 (Simulation time: 0 hr 3 min 24 sec) 
Heartbeat CPU 0 instructions: 80000000 cycles: 40988697 heartbeat IPC: 1.19694 cumulative IPC: 1.21949 (Simulation time: 0 hr 3 min 49 sec) 
Heartbeat CPU 0 instructions: 90000000 cycles: 46709668 heartbeat IPC: 1.74795 cumulative IPC: 1.3192 (Simulation time: 0 hr 4 min 9 sec) 
Heartbeat CPU 0 instructions: 100000002 cycles: 52575099 heartbeat IPC: 1.7049 cumulative IPC: 1.38172 (Simulation time: 0 hr 4 min 30 sec) 
Finished CPU 0 instructions: 50000001 cycles: 36186810 cumulative IPC: 1.38172 (Simulation time: 0 hr 4 min 30 sec) 

ChampSim completed all CPUs

Region of Interest Statistics

CPU 0 cumulative IPC: 1.38172 instructions: 50000001 cycles: 36186810
L1D TOTAL     ACCESS:   20673052  HIT:   20257953  MISS:     415099
L1D LOAD      ACCESS:    7166464  HIT:    6952652  MISS:     213812
L1D RFO       ACCESS:    6542033  HIT:    6523522  MISS:      18511
L1D PREFETCH  ACCESS:    6964555  HIT:    6781779  MISS:     182776
L1D WRITEBACK ACCESS:          0  HIT:          0  MISS:          0
L1D PREFETCH  REQUESTED:    7182084  ISSUED:    7065464  USEFUL:      55095  USELESS:     127676
L1D AVERAGE MISS LATENCY: 57.8278 cycles
L1I TOTAL     ACCESS:   37448021  HIT:   36692088  MISS:     755933
L1I LOAD      ACCESS:    9149734  HIT:    9100173  MISS:      49561
L1I RFO       ACCESS:          0  HIT:          0  MISS:          0
L1I PREFETCH  ACCESS:   28298287  HIT:   27591915  MISS:     706372
L1I WRITEBACK ACCESS:          0  HIT:          0  MISS:          0
L1I PREFETCH  REQUESTED:   36639879  ISSUED:   36639879  USEFUL:     417427  USELESS:     288967
L1I AVERAGE MISS LATENCY: 16.9218 cycles
L2C TOTAL     ACCESS:    1641659  HIT:    1473194  MISS:     168465
L2C LOAD      ACCESS:     241980  HIT:     163375  MISS:      78605
L2C RFO       ACCESS:      18268  HIT:      12774  MISS:       5494
L2C PREFETCH  ACCESS:    1302454  HIT:    1218448  MISS:      84006
L2C WRITEBACK ACCESS:      78957  HIT:      78597  MISS:        360
L2C PREFETCH  REQUESTED:    1195013  ISSUED:    1194988  USEFUL:       6156  USELESS:      77749
L2C AVERAGE MISS LATENCY: 118.75 cycles
LLC TOTAL     ACCESS:     430884  HIT:     288070  MISS:     142814
LLC LOAD      ACCESS:      78600  HIT:      31016  MISS:      47584
LLC RFO       ACCESS:       5494  HIT:       2443  MISS:       3051
LLC PREFETCH  ACCESS:     321227  HIT:     229551  MISS:      91676
LLC WRITEBACK ACCESS:      25563  HIT:      25060  MISS:        503
LLC PREFETCH  REQUESTED:          0  ISSUED:          0  USEFUL:      14700  USELESS:      76908
LLC AVERAGE MISS LATENCY: 160.083 cycles
Major fault: 0 Minor fault: 6365
CPU 0 L1I EPI prefetcher final stats
CPU 0 L1D next line prefetcher final stats

DRAM Statistics
 CHANNEL 0
 RQ ROW_BUFFER_HIT:      32781  ROW_BUFFER_MISS:     109530
 DBUS_CONGESTED:      59415
 WQ ROW_BUFFER_HIT:       4115  ROW_BUFFER_MISS:      13212  FULL:          0

 AVG_CONGESTED_CYCLE: 4

CPU 0 Branch Prediction Accuracy: 98.7418% MPKI: 2.47758 Average ROB Occupancy at Mispredict: 80.3853

Branch types
NOT_BRANCH: 40154100 80.3082%
BRANCH_DIRECT_JUMP: 817094 1.63419%
BRANCH_INDIRECT: 303787 0.607574%
BRANCH_CONDITIONAL: 7492103 14.9842%
BRANCH_DIRECT_CALL: 471777 0.943554%
BRANCH_INDIRECT_CALL: 144546 0.289092%
BRANCH_RETURN: 616324 1.23265%
BRANCH_OTHER: 0 0%

